version 2
run Ping2-0-20190129-10:17:32-5015
attr configname Ping2
attr datetime 20190129-10:17:32
attr experiment Ping2
attr inifile omnetpp.ini
attr iterationvars ""
attr iterationvarsf ""
attr measurement ""
attr network Net
attr processid 5015
attr repetition 0
attr replication #0
attr resultdir results
attr runnumber 0
attr seedset 0
param **.numHosts 3
param **.numAttackHosts 3
param **.constraintAreaMinX 0m
param **.constraintAreaMinY 0m
param **.constraintAreaMinZ 0m
param **.constraintAreaMaxX 600m
param **.constraintAreaMaxY 400m
param **.constraintAreaMaxZ 0m
param *.host[*].mobilityType "\"LinearMobility\""
param **.host*.mobility.speed 1mps
param **.host*.mobility.initFromDisplayString true
param **.host*.mobility.updateInterval 1000ms
param *.host[*].pingApp[*].sendInterval 1s
param **.pingApp[*].startTime 1s
param **.pingApp[*].printPing true
param **.attackhost*.mobilityType "\"LinearMobility\""
param **.attackhost*.mobility.speed 1mps
param **.attackhost*.mobility.initFromDisplayString true
param **.attackhost*.mobility.updateInterval 1000ms
param **.host[0].numPingApps 1
param **.host[*].numPingApps 1
param *.attackhost[*].numPingApps 1
param *.host[*].pingApp[*].destAddr "\"*\""
param *.attackhost[*].pingApp[*].destAddr "\"host[0]\""
param *.attackhost[*].pingApp[*].sendInterval 1s
param **.wlan[*].typename "\"IdealWirelessNic\""
param **.wlan[*].bitrate 2Mbps
param **.wlan[*].mac.address "\"auto\""
param **.wlan[*].mac.headerLength 20B
param **.wlan[*].radioType "\"IdealRadio\""
param **.wlan[*].radio.transmitter.headerBitLength 100b
param **.wlan[*].radio.transmitter.interferenceRange 0m
param **.wlan[*].radio.transmitter.detectionRange 1000m
param **.wlan[*].radio.receiver.ignoreInterference true
param **.wlan[*].radio.transmitter.communicationRange 100000m

vector 0 Net.host[0].wlan[0].queue queueLength:vector ETV
attr interpolationmode sample-hold
attr title "queue length, vector"
vector 1 Net.host[1].wlan[0].queue queueLength:vector ETV
attr interpolationmode sample-hold
attr title "queue length, vector"
vector 2 Net.host[2].wlan[0].queue queueLength:vector ETV
attr interpolationmode sample-hold
attr title "queue length, vector"
vector 3 Net.attackhost[0].wlan[0].queue queueLength:vector ETV
attr interpolationmode sample-hold
attr title "queue length, vector"
vector 4 Net.attackhost[1].wlan[0].queue queueLength:vector ETV
attr interpolationmode sample-hold
attr title "queue length, vector"
vector 5 Net.attackhost[2].wlan[0].queue queueLength:vector ETV
attr interpolationmode sample-hold
attr title "queue length, vector"
vector 6 Net.host[0].wlan[0].radio radioMode:vector ETV
attr interpolationmode sample-hold
attr source radioModeChanged
attr title "Radio mode, vector"
vector 7 Net.host[1].wlan[0].radio radioMode:vector ETV
attr interpolationmode sample-hold
attr source radioModeChanged
attr title "Radio mode, vector"
vector 8 Net.host[2].wlan[0].radio radioMode:vector ETV
attr interpolationmode sample-hold
attr source radioModeChanged
attr title "Radio mode, vector"
vector 9 Net.attackhost[0].wlan[0].radio radioMode:vector ETV
attr interpolationmode sample-hold
attr source radioModeChanged
attr title "Radio mode, vector"
vector 10 Net.attackhost[1].wlan[0].radio radioMode:vector ETV
attr interpolationmode sample-hold
attr source radioModeChanged
attr title "Radio mode, vector"
vector 11 Net.attackhost[2].wlan[0].radio radioMode:vector ETV
attr interpolationmode sample-hold
attr source radioModeChanged
attr title "Radio mode, vector"
vector 12 Net.host[0].wlan[0].radio receptionState:vector ETV
attr interpolationmode sample-hold
attr source receptionStateChanged
attr title "Radio reception state, vector"
vector 13 Net.host[0].wlan[0].radio transmissionState:vector ETV
attr interpolationmode sample-hold
attr source transmissionStateChanged
attr title "Radio transmission state, vector"
vector 14 Net.host[1].wlan[0].radio receptionState:vector ETV
attr interpolationmode sample-hold
attr source receptionStateChanged
attr title "Radio reception state, vector"
vector 15 Net.host[1].wlan[0].radio transmissionState:vector ETV
attr interpolationmode sample-hold
attr source transmissionStateChanged
attr title "Radio transmission state, vector"
vector 16 Net.host[2].wlan[0].radio receptionState:vector ETV
attr interpolationmode sample-hold
attr source receptionStateChanged
attr title "Radio reception state, vector"
vector 17 Net.host[2].wlan[0].radio transmissionState:vector ETV
attr interpolationmode sample-hold
attr source transmissionStateChanged
attr title "Radio transmission state, vector"
vector 18 Net.attackhost[0].wlan[0].radio receptionState:vector ETV
attr interpolationmode sample-hold
attr source receptionStateChanged
attr title "Radio reception state, vector"
vector 19 Net.attackhost[0].wlan[0].radio transmissionState:vector ETV
attr interpolationmode sample-hold
attr source transmissionStateChanged
attr title "Radio transmission state, vector"
vector 20 Net.attackhost[1].wlan[0].radio receptionState:vector ETV
attr interpolationmode sample-hold
attr source receptionStateChanged
attr title "Radio reception state, vector"
vector 21 Net.attackhost[1].wlan[0].radio transmissionState:vector ETV
attr interpolationmode sample-hold
attr source transmissionStateChanged
attr title "Radio transmission state, vector"
vector 22 Net.attackhost[2].wlan[0].radio receptionState:vector ETV
attr interpolationmode sample-hold
attr source receptionStateChanged
attr title "Radio reception state, vector"
vector 23 Net.attackhost[2].wlan[0].radio transmissionState:vector ETV
attr interpolationmode sample-hold
attr source transmissionStateChanged
attr title "Radio transmission state, vector"
vector 24 Net.host[0].pingApp[0] pingTxSeq:vector ETV
attr interpolationmode none
attr title "ping tx seq, vector"
vector 25 Net.host[1].pingApp[0] pingTxSeq:vector ETV
attr interpolationmode none
attr title "ping tx seq, vector"
vector 26 Net.host[2].pingApp[0] pingTxSeq:vector ETV
attr interpolationmode none
attr title "ping tx seq, vector"
vector 27 Net.attackhost[0].pingApp[0] pingTxSeq:vector ETV
attr interpolationmode none
attr title "ping tx seq, vector"
vector 28 Net.attackhost[1].pingApp[0] pingTxSeq:vector ETV
attr interpolationmode none
attr title "ping tx seq, vector"
vector 29 Net.attackhost[2].pingApp[0] pingTxSeq:vector ETV
attr interpolationmode none
attr title "ping tx seq, vector"
vector 30 Net.host[1].networkLayer.arp sentReq:vector ETV
attr title "ARP request sent, vector"
vector 31 Net.host[2].networkLayer.arp sentReq:vector ETV
attr title "ARP request sent, vector"
vector 32 Net.attackhost[0].networkLayer.arp sentReq:vector ETV
attr title "ARP request sent, vector"
vector 33 Net.attackhost[1].networkLayer.arp sentReq:vector ETV
attr title "ARP request sent, vector"
vector 34 Net.attackhost[2].networkLayer.arp sentReq:vector ETV
attr title "ARP request sent, vector"
vector 35 Net.host[0].lo0.lo rcvdPkFromHL:vector(packetBytes) ETV
attr interpolationmode none
attr source packetReceivedFromUpper
attr title "packets received from higher layer, vector(packetBytes)"
vector 36 Net.host[0].lo0.lo passedUpPk:vector(packetBytes) ETV
attr interpolationmode none
attr source packetSentToUpper
attr title "packets passed to higher layer, vector(packetBytes)"
vector 37 Net.host[1].wlan[0].queue rcvdPk:vector(packetBytes) ETV
attr interpolationmode none
attr title "received packets, vector(packetBytes)"
vector 38 Net.host[1].wlan[0].queue queueingTime:vector ETV
attr interpolationmode none
attr title "queueing time, vector"
vector 39 Net.host[2].wlan[0].queue rcvdPk:vector(packetBytes) ETV
attr interpolationmode none
attr title "received packets, vector(packetBytes)"
vector 40 Net.host[2].wlan[0].queue queueingTime:vector ETV
attr interpolationmode none
attr title "queueing time, vector"
vector 41 Net.attackhost[0].wlan[0].queue rcvdPk:vector(packetBytes) ETV
attr interpolationmode none
attr title "received packets, vector(packetBytes)"
vector 42 Net.attackhost[0].wlan[0].queue queueingTime:vector ETV
attr interpolationmode none
attr title "queueing time, vector"
vector 43 Net.attackhost[1].wlan[0].queue rcvdPk:vector(packetBytes) ETV
attr interpolationmode none
attr title "received packets, vector(packetBytes)"
vector 44 Net.attackhost[1].wlan[0].queue queueingTime:vector ETV
attr interpolationmode none
attr title "queueing time, vector"
vector 45 Net.attackhost[2].wlan[0].queue rcvdPk:vector(packetBytes) ETV
attr interpolationmode none
attr title "received packets, vector(packetBytes)"
vector 46 Net.attackhost[2].wlan[0].queue queueingTime:vector ETV
attr interpolationmode none
attr title "queueing time, vector"
vector 47 Net.host[1].wlan[0].mac rcvdPkFromHL:vector(packetBytes) ETV
attr interpolationmode none
attr source packetReceivedFromUpper
attr title "packets received from higher layer, vector(packetBytes)"
vector 48 Net.host[1].wlan[0].mac sentDownPk:vector(packetBytes) ETV
attr interpolationmode none
attr source packetSentToLower
attr title "packets sent to lower layer, vector(packetBytes)"
vector 49 Net.host[2].wlan[0].mac rcvdPkFromHL:vector(packetBytes) ETV
attr interpolationmode none
attr source packetReceivedFromUpper
attr title "packets received from higher layer, vector(packetBytes)"
vector 50 Net.host[2].wlan[0].mac sentDownPk:vector(packetBytes) ETV
attr interpolationmode none
attr source packetSentToLower
attr title "packets sent to lower layer, vector(packetBytes)"
vector 51 Net.attackhost[0].wlan[0].mac rcvdPkFromHL:vector(packetBytes) ETV
attr interpolationmode none
attr source packetReceivedFromUpper
attr title "packets received from higher layer, vector(packetBytes)"
vector 52 Net.attackhost[0].wlan[0].mac sentDownPk:vector(packetBytes) ETV
attr interpolationmode none
attr source packetSentToLower
attr title "packets sent to lower layer, vector(packetBytes)"
vector 53 Net.attackhost[1].wlan[0].mac rcvdPkFromHL:vector(packetBytes) ETV
attr interpolationmode none
attr source packetReceivedFromUpper
attr title "packets received from higher layer, vector(packetBytes)"
vector 54 Net.attackhost[1].wlan[0].mac sentDownPk:vector(packetBytes) ETV
attr interpolationmode none
attr source packetSentToLower
attr title "packets sent to lower layer, vector(packetBytes)"
vector 55 Net.attackhost[2].wlan[0].mac rcvdPkFromHL:vector(packetBytes) ETV
attr interpolationmode none
attr source packetReceivedFromUpper
attr title "packets received from higher layer, vector(packetBytes)"
vector 56 Net.attackhost[2].wlan[0].mac sentDownPk:vector(packetBytes) ETV
attr interpolationmode none
attr source packetSentToLower
attr title "packets sent to lower layer, vector(packetBytes)"
vector 57 Net.host[0].pingApp[0] pingRxSeq:vector ETV
attr interpolationmode none
attr title "ping rx seq, vector"
vector 58 Net.attackhost[2].wlan[0].mac rcvdPkFromLL:vector(packetBytes) ETV
attr interpolationmode none
attr source packetReceivedFromLower
attr title "packets received from lower layer, vector(packetBytes)"
vector 59 Net.attackhost[2].wlan[0].mac passedUpPk:vector(packetBytes) ETV
attr interpolationmode none
attr source packetSentToUpper
attr title "packets passed to higher layer, vector(packetBytes)"
vector 60 Net.attackhost[1].wlan[0].mac rcvdPkFromLL:vector(packetBytes) ETV
attr interpolationmode none
attr source packetReceivedFromLower
attr title "packets received from lower layer, vector(packetBytes)"
vector 61 Net.attackhost[1].wlan[0].mac passedUpPk:vector(packetBytes) ETV
attr interpolationmode none
attr source packetSentToUpper
attr title "packets passed to higher layer, vector(packetBytes)"
vector 62 Net.host[0].wlan[0].mac rcvdPkFromLL:vector(packetBytes) ETV
attr interpolationmode none
attr source packetReceivedFromLower
attr title "packets received from lower layer, vector(packetBytes)"
vector 63 Net.host[0].wlan[0].mac passedUpPk:vector(packetBytes) ETV
attr interpolationmode none
attr source packetSentToUpper
attr title "packets passed to higher layer, vector(packetBytes)"
vector 64 Net.host[0].networkLayer.arp sentReply:vector ETV
attr title "ARP replies sent, vector"
vector 65 Net.host[0].wlan[0].queue rcvdPk:vector(packetBytes) ETV
attr interpolationmode none
attr title "received packets, vector(packetBytes)"
vector 66 Net.host[0].wlan[0].queue queueingTime:vector ETV
attr interpolationmode none
attr title "queueing time, vector"
vector 67 Net.host[0].wlan[0].mac rcvdPkFromHL:vector(packetBytes) ETV
attr interpolationmode none
attr source packetReceivedFromUpper
attr title "packets received from higher layer, vector(packetBytes)"
vector 68 Net.host[0].wlan[0].mac sentDownPk:vector(packetBytes) ETV
attr interpolationmode none
attr source packetSentToLower
attr title "packets sent to lower layer, vector(packetBytes)"
vector 69 Net.attackhost[0].wlan[0].mac rcvdPkFromLL:vector(packetBytes) ETV
attr interpolationmode none
attr source packetReceivedFromLower
attr title "packets received from lower layer, vector(packetBytes)"
vector 70 Net.attackhost[0].wlan[0].mac passedUpPk:vector(packetBytes) ETV
attr interpolationmode none
attr source packetSentToUpper
attr title "packets passed to higher layer, vector(packetBytes)"
vector 71 Net.host[2].wlan[0].mac rcvdPkFromLL:vector(packetBytes) ETV
attr interpolationmode none
attr source packetReceivedFromLower
attr title "packets received from lower layer, vector(packetBytes)"
vector 72 Net.host[2].wlan[0].mac passedUpPk:vector(packetBytes) ETV
attr interpolationmode none
attr source packetSentToUpper
attr title "packets passed to higher layer, vector(packetBytes)"
vector 73 Net.host[1].wlan[0].mac rcvdPkFromLL:vector(packetBytes) ETV
attr interpolationmode none
attr source packetReceivedFromLower
attr title "packets received from lower layer, vector(packetBytes)"
vector 74 Net.host[1].wlan[0].mac passedUpPk:vector(packetBytes) ETV
attr interpolationmode none
attr source packetSentToUpper
attr title "packets passed to higher layer, vector(packetBytes)"
vector 75 Net.host[2].wlan[0].mac droppedPkNotForUs:vector(packetBytes) ETV
attr interpolationmode none
attr source dropPkNotForUs
attr title "packets dropped/not for us, vector(packetBytes)"
vector 76 Net.attackhost[0].wlan[0].mac droppedPkNotForUs:vector(packetBytes) ETV
attr interpolationmode none
attr source dropPkNotForUs
attr title "packets dropped/not for us, vector(packetBytes)"
vector 77 Net.attackhost[2].wlan[0].mac droppedPkNotForUs:vector(packetBytes) ETV
attr interpolationmode none
attr source dropPkNotForUs
attr title "packets dropped/not for us, vector(packetBytes)"
vector 78 Net.attackhost[1].wlan[0].mac droppedPkNotForUs:vector(packetBytes) ETV
attr interpolationmode none
attr source dropPkNotForUs
attr title "packets dropped/not for us, vector(packetBytes)"
0	0	0	0
1	0	0	0
2	0	0	0
3	0	0	0
4	0	0	0
5	0	0	0
6	0	0	0
6	0	0	4
7	0	0	0
7	0	0	4
8	0	0	0
8	0	0	4
9	0	0	0
9	0	0	4
10	0	0	0
10	0	0	4
11	0	0	0
11	0	0	4
12	0	0	1
12	67	1.000000000063	3
12	103	1.000242000063	2
12	142	1.000242319612	1
12	219	2.000000000125	3
12	255	2.000242000125	2
12	294	2.000242325603	1
12	371	3.000000000188	3
12	407	3.000242000188	2
12	446	3.000242331597	1
12	523	4.00000000025	3
12	559	4.00024200025	2
12	598	4.000242337595	1
12	675	5.000000000313	3
12	711	5.000242000313	2
12	750	5.000242343597	1
12	827	6.000000000375	3
12	863	6.000242000375	2
12	902	6.000242349601	1
12	979	7.000000000438	3
12	1015	7.000242000438	2
12	1054	7.000242355609	1
12	1131	8.000000000501	3
12	1167	8.000242000501	2
12	1206	8.00024236162	1
12	1283	9.000000000563	3
12	1319	9.000242000563	2
12	1358	9.000242367633	1
12	1435	10.000000000626	3
12	1471	10.000242000626	2
12	1510	10.000242373649	1
12	1587	11.000000000688	3
12	1623	11.000242000688	2
12	1662	11.000242379667	1
12	1739	12.000000000751	3
12	1775	12.000242000751	2
12	1814	12.000242385688	1
12	1891	13.000000000814	3
12	1927	13.000242000814	2
12	1966	13.000242391711	1
12	2043	14.000000000876	3
12	2079	14.000242000876	2
12	2118	14.000242397736	1
12	2195	15.000000000939	3
12	2231	15.000242000939	2
12	2270	15.000242403764	1
12	2347	16.000000001001	3
12	2383	16.000242001001	2
12	2422	16.000242409793	1
12	2499	17.000000001064	3
12	2535	17.000242001064	2
12	2574	17.000242415824	1
12	2651	18.000000001126	3
12	2687	18.000242001126	2
12	2726	18.000242421857	1
12	2803	19.000000001189	3
12	2839	19.000242001189	2
12	2878	19.000242427892	1
12	2955	20.000000001252	3
12	2991	20.000242001252	2
12	3030	20.000242433928	1
12	3107	21.000000001314	3
12	3143	21.000242001314	2
12	3182	21.000242439966	1
12	3259	22.000000001377	3
12	3295	22.000242001377	2
12	3334	22.000242446005	1
12	3411	23.000000001439	3
12	3447	23.000242001439	2
12	3486	23.000242452046	1
12	3563	24.000000001502	3
12	3599	24.000242001502	2
12	3638	24.000242458089	1
12	3715	25.000000001565	3
12	3751	25.000242001565	2
12	3790	25.000242464132	1
12	3867	26.000000001627	3
12	3903	26.000242001627	2
12	3942	26.000242470177	1
12	4019	27.00000000169	3
12	4055	27.00024200169	2
12	4094	27.000242476223	1
12	4171	28.000000001752	3
12	4207	28.000242001752	2
12	4246	28.000242482271	1
12	4323	29.000000001815	3
12	4359	29.000242001815	2
12	4398	29.000242488319	1
12	4475	30.000000001877	3
12	4511	30.000242001877	2
12	4550	30.000242494369	1
12	4627	31.00000000194	3
12	4663	31.00024200194	2
12	4702	31.00024250042	1
12	4779	32.000000002003	3
12	4815	32.000242002003	2
12	4854	32.000242506472	1
12	4931	33.000000002065	3
12	4967	33.000242002065	2
12	5006	33.000242512524	1
12	5083	34.000000002128	3
12	5119	34.000242002128	2
12	5158	34.000242518578	1
12	5235	35.00000000219	3
12	5271	35.00024200219	2
12	5310	35.000242524633	1
12	5387	36.000000002253	3
12	5423	36.000242002253	2
12	5462	36.000242530689	1
12	5539	37.000000002315	3
12	5575	37.000242002315	2
12	5614	37.000242536745	1
12	5691	38.000000002378	3
12	5727	38.000242002378	2
12	5766	38.000242542802	1
12	5843	39.000000002441	3
12	5879	39.000242002441	2
12	5918	39.00024254886	1
12	5995	40.000000002503	3
12	6031	40.000242002503	2
12	6070	40.000242554919	1
12	6147	41.000000002566	3
12	6183	41.000242002566	2
12	6222	41.000242560979	1
12	6299	42.000000002628	3
12	6335	42.000242002628	2
12	6374	42.000242567039	1
12	6451	43.000000002691	3
12	6487	43.000242002691	2
12	6526	43.0002425731	1
12	6603	44.000000002754	3
12	6639	44.000242002754	2
12	6678	44.000242579162	1
12	6755	45.000000002816	3
12	6791	45.000242002816	2
12	6830	45.000242585225	1
12	6907	46.000000002879	3
12	6943	46.000242002879	2
12	6982	46.000242591288	1
12	7059	47.000000002941	3
12	7095	47.000242002941	2
12	7134	47.000242597351	1
12	7211	48.000000003004	3
12	7247	48.000242003004	2
12	7286	48.000242603416	1
12	7363	49.000000003066	3
12	7399	49.000242003066	2
12	7438	49.000242609481	1
12	7515	50.000000003129	3
12	7551	50.000242003129	2
12	7590	50.000242615546	1
12	7667	51.000000003192	3
12	7703	51.000242003192	2
12	7742	51.000242621612	1
12	7819	52.000000003254	3
12	7855	52.000242003254	2
12	7894	52.000242627679	1
12	7971	53.000000003317	3
12	8007	53.000242003317	2
12	8046	53.000242633746	1
12	8123	54.000000003379	3
12	8159	54.000242003379	2
12	8198	54.000242639814	1
12	8275	55.000000003442	3
12	8311	55.000242003442	2
12	8350	55.000242645882	1
12	8427	56.000000003505	3
12	8463	56.000242003505	2
12	8502	56.00024265195	1
12	8579	57.000000003567	3
12	8615	57.000242003567	2
12	8654	57.00024265802	1
12	8731	58.00000000363	3
12	8767	58.00024200363	2
12	8806	58.000242664089	1
12	8883	59.000000003692	3
12	8919	59.000242003692	2
12	8958	59.000242670159	1
12	9035	60.000000003755	3
12	9071	60.000242003755	2
12	9110	60.000242676229	1
12	9187	61.000000003817	3
12	9223	61.000242003817	2
12	9262	61.0002426823	1
12	9339	62.00000000388	3
12	9375	62.00024200388	2
12	9414	62.000242688372	1
12	9491	63.000000003943	3
12	9527	63.000242003943	2
12	9566	63.000242694443	1
12	9643	64.000000004005	3
12	9679	64.000242004005	2
12	9718	64.000242700515	1
12	9795	65.000000004068	3
12	9831	65.000242004068	2
12	9870	65.000242706588	1
12	9947	66.00000000413	3
12	9983	66.00024200413	2
12	10022	66.00024271266	1
12	10099	67.000000004193	3
12	10135	67.000242004193	2
12	10174	67.000242718734	1
12	10251	68.000000004255	3
12	10287	68.000242004255	2
12	10326	68.000242724807	1
12	10403	69.000000004318	3
12	10439	69.000242004318	2
12	10478	69.000242730881	1
12	10555	70.000000004381	3
12	10591	70.000242004381	2
12	10630	70.000242736955	1
12	10707	71.000000004443	3
12	10743	71.000242004443	2
12	10782	71.000242743029	1
12	10859	72.000000004506	3
12	10895	72.000242004506	2
12	10934	72.000242749104	1
12	11011	73.000000004568	3
12	11047	73.000242004568	2
12	11086	73.000242755179	1
12	11163	74.000000004631	3
12	11199	74.000242004631	2
12	11238	74.000242761255	1
12	11315	75.000000004694	3
12	11351	75.000242004694	2
12	11390	75.00024276733	1
12	11467	76.000000004756	3
12	11503	76.000242004756	2
12	11542	76.000242773406	1
12	11619	77.000000004819	3
12	11655	77.000242004819	2
12	11694	77.000242779483	1
12	11771	78.000000004881	3
12	11807	78.000242004881	2
12	11846	78.000242785559	1
12	11923	79.000000004944	3
12	11959	79.000242004944	2
12	11998	79.000242791636	1
12	12075	80.000000005006	3
12	12111	80.000242005006	2
12	12150	80.000242797713	1
12	12227	81.000000005069	3
12	12263	81.000242005069	2
12	12302	81.00024280379	1
12	12379	82.000000005132	3
12	12415	82.000242005132	2
12	12454	82.000242809868	1
12	12531	83.000000005194	3
12	12567	83.000242005194	2
12	12606	83.000242815946	1
12	12683	84.000000005257	3
12	12719	84.000242005257	2
12	12758	84.000242822024	1
12	12835	85.000000005319	3
12	12871	85.000242005319	2
12	12910	85.000242828102	1
12	12987	86.000000005382	3
12	13023	86.000242005382	2
12	13062	86.000242834181	1
12	13139	87.000000005445	3
12	13175	87.000242005445	2
12	13214	87.000242840259	1
12	13291	88.000000005507	3
12	13327	88.000242005507	2
12	13366	88.000242846338	1
12	13443	89.00000000557	3
12	13479	89.00024200557	2
12	13518	89.000242852418	1
12	13595	90.000000005632	3
12	13631	90.000242005632	2
12	13670	90.000242858497	1
12	13747	91.000000005695	3
12	13783	91.000242005695	2
12	13822	91.000242864577	1
12	13899	92.000000005757	3
12	13935	92.000242005757	2
12	13974	92.000242870656	1
12	14051	93.00000000582	3
12	14087	93.00024200582	2
12	14126	93.000242876736	1
12	14203	94.000000005883	3
12	14239	94.000242005883	2
12	14278	94.000242882817	1
12	14355	95.000000005945	3
12	14391	95.000242005945	2
12	14430	95.000242888897	1
12	14507	96.000000006008	3
12	14543	96.000242006008	2
12	14582	96.000242894977	1
12	14659	97.00000000607	3
12	14695	97.00024200607	2
12	14734	97.000242901058	1
12	14811	98.000000006133	3
12	14847	98.000242006133	2
12	14886	98.000242907139	1
12	14963	99.000000006196	3
12	14999	99.000242006196	2
12	15038	99.00024291322	1
12	15115	100.000000006258	3
12	15151	100.000242006258	2
12	15190	100.000242919301	1
12	15267	101.000000006321	3
12	15303	101.000242006321	2
12	15342	101.000242925383	1
12	15419	102.000000006383	3
12	15455	102.000242006383	2
12	15494	102.000242931465	1
12	15571	103.000000006446	3
12	15607	103.000242006446	2
12	15646	103.000242937546	1
12	15723	104.000000005371	3
12	15759	104.000242005371	2
12	15796	104.000242941622	1
12	15875	105.000000006571	3
12	15911	105.000242006571	2
12	15948	105.000242944505	1
12	16027	106.000000006634	3
12	16063	106.000242006634	2
12	16100	106.000242947414	1
12	16179	107.000000006696	3
12	16215	107.000242006696	2
12	16252	107.000242950347	1
12	16331	108.000000006759	3
12	16367	108.000242006759	2
12	16404	108.000242953305	1
12	16483	109.000000006821	3
12	16519	109.000242006821	2
12	16556	109.000242956287	1
12	16635	110.000000006884	3
12	16671	110.000242006884	2
12	16708	110.000242959293	1
12	16787	111.000000006946	3
12	16823	111.000242006946	2
12	16860	111.000242962323	1
12	16939	112.000000007009	3
12	16975	112.000242007009	2
12	17012	112.000242965377	1
12	17091	113.000000007072	3
12	17127	113.000242007072	2
12	17164	113.000242968454	1
12	17243	114.000000007134	3
12	17279	114.000242007134	2
12	17316	114.000242971554	1
12	17395	115.000000007197	3
12	17431	115.000242007197	2
12	17468	115.000242974677	1
12	17547	116.000000007259	3
12	17583	116.000242007259	2
12	17620	116.000242977823	1
12	17699	117.000000007322	3
12	17735	117.000242007322	2
12	17772	117.000242980991	1
12	17851	118.000000007385	3
12	17887	118.000242007385	2
12	17924	118.000242984182	1
12	18003	119.000000007447	3
12	18039	119.000242007447	2
12	18076	119.000242987394	1
12	18155	120.00000000751	3
12	18191	120.00024200751	2
12	18228	120.000242990629	1
12	18307	121.000000007572	3
12	18343	121.000242007572	2
12	18380	121.000242993885	1
12	18459	122.000000007635	3
12	18495	122.000242007635	2
12	18532	122.000242997163	1
12	18611	123.000000007697	3
12	18647	123.000242007697	2
12	18684	123.000243000461	1
12	18763	124.00000000776	3
12	18799	124.00024200776	2
12	18836	124.000243003781	1
12	18915	125.000000007823	3
12	18951	125.000242007823	2
12	18988	125.000243007122	1
12	19067	126.000000007885	3
12	19103	126.000242007885	2
12	19140	126.000243010483	1
12	19219	127.000000007948	3
12	19255	127.000242007948	2
12	19292	127.000243013865	1
12	19371	128.00000000801	3
12	19407	128.00024200801	2
12	19444	128.000243017266	1
12	19523	129.000000008073	3
12	19559	129.000242008073	2
12	19596	129.000243020688	1
12	19675	130.000000008136	3
12	19711	130.000242008136	2
12	19748	130.00024302413	1
12	19827	131.000000008198	3
12	19863	131.000242008198	2
12	19900	131.000243027591	1
12	19979	132.000000008261	3
12	20015	132.000242008261	2
12	20052	132.000243031071	1
12	20131	133.000000008323	3
12	20167	133.000242008323	2
12	20204	133.000243034571	1
12	20283	134.000000008386	3
12	20319	134.000242008386	2
12	20356	134.00024303809	1
12	20435	135.000000008448	3
12	20471	135.000242008448	2
12	20508	135.000243041627	1
12	20587	136.000000008511	3
12	20623	136.000242008511	2
12	20660	136.000243045184	1
12	20739	137.000000008574	3
12	20775	137.000242008574	2
12	20812	137.000243048758	1
12	20891	138.000000008636	3
12	20927	138.000242008636	2
12	20964	138.000243052351	1
12	21043	139.000000008699	3
12	21079	139.000242008699	2
12	21116	139.000243055962	1
12	21195	140.000000008761	3
12	21231	140.000242008761	2
12	21268	140.000243059591	1
12	21347	141.000000008824	3
12	21383	141.000242008824	2
12	21420	141.000243063237	1
12	21499	142.000000008886	3
12	21535	142.000242008886	2
12	21572	142.000243066901	1
12	21651	143.000000008949	3
12	21687	143.000242008949	2
12	21724	143.000243070582	1
12	21803	144.000000009012	3
12	21839	144.000242009012	2
12	21876	144.000243074281	1
12	21955	145.000000009074	3
12	21991	145.000242009074	2
12	22028	145.000243077996	1
12	22107	146.000000009137	3
12	22143	146.000242009137	2
12	22180	146.000243081728	1
12	22259	147.000000009199	3
12	22295	147.000242009199	2
12	22332	147.000243085477	1
12	22411	148.000000009262	3
12	22447	148.000242009262	2
12	22484	148.000243089242	1
12	22563	149.000000009325	3
12	22599	149.000242009325	2
12	22636	149.000243093024	1
12	22715	150.000000009387	3
12	22751	150.000242009387	2
12	22788	150.000243096821	1
12	22867	151.00000000945	3
12	22903	151.00024200945	2
12	22940	151.000243100635	1
12	23019	152.000000009512	3
12	23055	152.000242009512	2
12	23092	152.000243104464	1
12	23171	153.000000009575	3
12	23207	153.000242009575	2
12	23244	153.000243108309	1
12	23323	154.000000009637	3
12	23359	154.000242009637	2
12	23396	154.00024311217	1
12	23475	155.0000000097	3
12	23511	155.0002420097	2
12	23548	155.000243116045	1
12	23627	156.000000009763	3
12	23663	156.000242009763	2
12	23700	156.000243119936	1
12	23779	157.000000009825	3
12	23815	157.000242009825	2
12	23852	157.000243123842	1
12	23931	158.000000009888	3
12	23967	158.000242009888	2
12	24004	158.000243127763	1
12	24083	159.00000000995	3
12	24119	159.00024200995	2
12	24156	159.000243131698	1
12	24235	160.000000010013	3
12	24271	160.000242010013	2
12	24308	160.000243135648	1
12	24387	161.000000010076	3
12	24423	161.000242010076	2
12	24460	161.000243139612	1
12	24539	162.000000010138	3
12	24575	162.000242010138	2
12	24612	162.00024314359	1
12	24691	163.000000010201	3
12	24727	163.000242010201	2
12	24764	163.000243147583	1
12	24843	164.000000010263	3
12	24879	164.000242010263	2
12	24916	164.000243151589	1
12	24995	165.000000010326	3
12	25031	165.000242010326	2
12	25068	165.00024315561	1
12	25147	166.000000010388	3
12	25183	166.000242010388	2
12	25220	166.000243159643	1
12	25299	167.000000010451	3
12	25335	167.000242010451	2
12	25372	167.000243163691	1
12	25451	168.000000010514	3
12	25487	168.000242010514	2
12	25524	168.000243167751	1
12	25603	169.000000010576	3
12	25639	169.000242010576	2
12	25676	169.000243171825	1
12	25755	170.000000010639	3
12	25791	170.000242010639	2
12	25828	170.000243175912	1
12	25907	171.000000010701	3
12	25943	171.000242010701	2
12	25980	171.000243180012	1
12	26059	172.000000010764	3
12	26095	172.000242010764	2
12	26132	172.000243184125	1
12	26211	173.000000010826	3
12	26247	173.000242010826	2
12	26284	173.00024318825	1
12	26363	174.000000010889	3
12	26399	174.000242010889	2
12	26436	174.000243192388	1
12	26515	175.000000010952	3
12	26551	175.000242010952	2
12	26588	175.000243196538	1
12	26667	176.000000011014	3
12	26703	176.000242011014	2
12	26740	176.000243200701	1
12	26819	177.000000011077	3
12	26855	177.000242011077	2
12	26892	177.000243204876	1
12	26971	178.000000011139	3
12	27007	178.000242011139	2
12	27044	178.000243209062	1
12	27123	179.000000011202	3
12	27159	179.000242011202	2
12	27196	179.000243213261	1
12	27275	180.000000011265	3
12	27311	180.000242011265	2
12	27348	180.000243217472	1
12	27427	181.000000011327	3
12	27463	181.000242011327	2
12	27500	181.000243221694	1
12	27579	182.00000001139	3
12	27615	182.00024201139	2
12	27652	182.000243225927	1
12	27731	183.000000011452	3
12	27767	183.000242011452	2
12	27804	183.000243230172	1
12	27883	184.000000011515	3
12	27919	184.000242011515	2
12	27956	184.000243234429	1
12	28035	185.000000011577	3
12	28071	185.000242011577	2
12	28108	185.000243238696	1
12	28187	186.00000001164	3
12	28223	186.00024201164	2
12	28260	186.000243242975	1
12	28339	187.000000011703	3
12	28375	187.000242011703	2
12	28412	187.000243247265	1
12	28491	188.000000011765	3
12	28527	188.000242011765	2
12	28564	188.000243251565	1
12	28643	189.000000011828	3
12	28679	189.000242011828	2
12	28716	189.000243255876	1
12	28795	190.00000001189	3
12	28831	190.00024201189	2
12	28868	190.000243260198	1
12	28947	191.000000011953	3
12	28983	191.000242011953	2
12	29020	191.00024326453	1
12	29099	192.000000012016	3
12	29135	192.000242012016	2
12	29172	192.000243268873	1
12	29251	193.000000012078	3
12	29287	193.000242012078	2
12	29324	193.000243273226	1
12	29403	194.000000012141	3
12	29439	194.000242012141	2
12	29476	194.000243277589	1
12	29555	195.000000012203	3
12	29591	195.000242012203	2
12	29628	195.000243281963	1
12	29707	196.000000012266	3
12	29743	196.000242012266	2
12	29780	196.000243286346	1
12	29859	197.000000012328	3
12	29895	197.000242012328	2
12	29932	197.000243290739	1
12	30011	198.000000012391	3
12	30047	198.000242012391	2
12	30084	198.000243295142	1
12	30163	199.000000012454	3
12	30199	199.000242012454	2
12	30236	199.000243299555	1
12	30315	200.000000012516	3
12	30351	200.000242012516	2
12	30388	200.000243303977	1
12	30467	201.000000012579	3
12	30503	201.000242012579	2
12	30540	201.000243308408	1
12	30619	202.000000012641	3
12	30655	202.000242012641	2
12	30692	202.00024331285	1
12	30771	203.000000012704	3
12	30807	203.000242012704	2
12	30844	203.0002433173	1
12	30923	204.000000012766	3
12	30959	204.000242012766	2
12	30996	204.00024332176	1
12	31075	205.000000012829	3
12	31111	205.000242012829	2
12	31146	205.000243326228	1
12	31227	206.000000012892	3
12	31263	206.000242012892	2
12	31296	206.000243330706	1
12	31379	207.000000012954	3
12	31415	207.000242012954	2
12	31448	207.000243335193	1
12	31531	208.000000013017	3
12	31567	208.000242013017	2
12	31600	208.000243339688	1
12	31683	209.000000013079	3
12	31719	209.000242013079	2
12	31752	209.000243344192	1
12	31835	210.000000013142	3
12	31871	210.000242013142	2
12	31904	210.000243348705	1
12	31987	211.000000013205	3
12	32023	211.000242013205	2
12	32056	211.000243353227	1
12	32140	212.000000013267	3
12	32176	212.000242013267	2
12	32209	212.000243357757	1
12	32293	213.00000001333	3
12	32329	213.00024201333	2
12	32362	213.000243362295	1
12	32446	214.000000013392	3
12	32482	214.000242013392	2
12	32515	214.000243366842	1
12	32599	215.000000013455	3
12	32635	215.000242013455	2
12	32668	215.000243371397	1
12	32752	216.000000013517	3
12	32788	216.000242013517	2
12	32821	216.00024337596	1
12	32905	217.00000001358	3
12	32941	217.00024201358	2
12	32974	217.000243380531	1
12	33058	218.000000013643	3
12	33094	218.000242013643	2
12	33127	218.00024338511	1
12	33211	219.000000013705	3
12	33247	219.000242013705	2
12	33280	219.000243389697	1
12	33364	220.000000013768	3
12	33400	220.000242013768	2
12	33433	220.000243394292	1
12	33517	221.00000001383	3
12	33553	221.00024201383	2
12	33586	221.000243398895	1
12	33670	222.000000013893	3
12	33706	222.000242013893	2
12	33739	222.000243403505	1
12	33823	223.000000013956	3
12	33859	223.000242013956	2
12	33892	223.000243408123	1
12	33976	224.000000014018	3
12	34012	224.000242014018	2
12	34045	224.000243412749	1
12	34129	225.000000014081	3
12	34165	225.000242014081	2
12	34198	225.000243417382	1
12	34282	226.000000014143	3
12	34318	226.000242014143	2
12	34351	226.000243422022	1
12	34435	227.000000014206	3
12	34471	227.000242014206	2
12	34504	227.00024342667	1
12	34588	228.000000014268	3
12	34624	228.000242014268	2
12	34657	228.000243431325	1
12	34741	229.000000014331	3
12	34777	229.000242014331	2
12	34810	229.000243435987	1
12	34894	230.000000014394	3
12	34930	230.000242014394	2
12	34963	230.000243440656	1
12	35047	231.000000014456	3
12	35083	231.000242014456	2
12	35116	231.000243445332	1
12	35200	232.000000014519	3
12	35236	232.000242014519	2
12	35269	232.000243450015	1
12	35353	233.000000014581	3
12	35389	233.000242014581	2
12	35422	233.000243454706	1
12	35506	234.000000014644	3
12	35542	234.000242014644	2
12	35575	234.000243459403	1
12	35659	235.000000014707	3
12	35695	235.000242014707	2
12	35728	235.000243464106	1
12	35812	236.000000014769	3
12	35848	236.000242014769	2
12	35881	236.000243468817	1
12	35965	237.000000014832	3
12	36001	237.000242014832	2
12	36034	237.000243473534	1
12	36118	238.000000014894	3
12	36154	238.000242014894	2
12	36187	238.000243478257	1
12	36271	239.000000014957	3
12	36307	239.000242014957	2
12	36340	239.000243482988	1
12	36424	240.000000015019	3
12	36460	240.000242015019	2
12	36493	240.000243487724	1
12	36577	241.000000015082	3
12	36613	241.000242015082	2
12	36646	241.000243492467	1
12	36730	242.000000015145	3
12	36766	242.000242015145	2
12	36799	242.000243497216	1
12	36883	243.000000015207	3
12	36919	243.000242015207	2
12	36952	243.000243501972	1
12	37036	244.00000001527	3
12	37072	244.00024201527	2
12	37105	244.000243506734	1
12	37189	245.000000015332	3
12	37225	245.000242015332	2
12	37258	245.000243511502	1
12	37342	246.000000015395	3
12	37378	246.000242015395	2
12	37411	246.000243516276	1
12	37495	247.000000015457	3
12	37531	247.000242015457	2
12	37564	247.000243521056	1
12	37648	248.00000001552	3
12	37684	248.00024201552	2
12	37717	248.000243525842	1
12	37801	249.000000015583	3
12	37837	249.000242015583	2
12	37870	249.000243530634	1
12	37954	250.000000015645	3
12	37990	250.000242015645	2
12	38023	250.000243535432	1
12	38107	251.000000015708	3
12	38143	251.000242015708	2
12	38176	251.000243540253	1
12	38260	252.00000001577	3
12	38296	252.00024201577	2
12	38329	252.000243545086	1
12	38413	253.000000015833	3
12	38449	253.000242015833	2
12	38482	253.000243549925	1
12	38566	254.000000015896	3
12	38602	254.000242015896	2
12	38635	254.000243554769	1
12	38719	255.000000015958	3
12	38755	255.000242015958	2
12	38788	255.000243559619	1
12	38872	256.000000016021	3
12	38908	256.000242016021	2
12	38941	256.000243564475	1
12	39025	257.000000016083	3
12	39061	257.000242016083	2
12	39094	257.000243569336	1
12	39178	258.000000016146	3
12	39214	258.000242016146	2
12	39247	258.000243574203	1
12	39331	259.000000016208	3
12	39367	259.000242016208	2
12	39400	259.000243579075	1
12	39484	260.000000016271	3
12	39520	260.000242016271	2
12	39553	260.000243583953	1
12	39637	261.000000016334	3
12	39673	261.000242016334	2
12	39706	261.000243588835	1
12	39790	262.000000016396	3
12	39826	262.000242016396	2
12	39859	262.000243593724	1
12	39943	263.000000016459	3
12	39979	263.000242016459	2
12	40012	263.000243598617	1
12	40096	264.000000016521	3
12	40132	264.000242016521	2
12	40165	264.000243603516	1
12	40249	265.000000016584	3
12	40285	265.000242016584	2
12	40318	265.000243608419	1
12	40402	266.000000016647	3
12	40438	266.000242016647	2
12	40471	266.000243613328	1
12	40555	267.000000016709	3
12	40591	267.000242016709	2
12	40624	267.000243618242	1
12	40708	268.000000016772	3
12	40744	268.000242016772	2
12	40777	268.000243623161	1
12	40861	269.000000016834	3
12	40897	269.000242016834	2
12	40930	269.000243628085	1
12	41014	270.000000016897	3
12	41050	270.000242016897	2
12	41083	270.000243633013	1
12	41167	271.000000016959	3
12	41203	271.000242016959	2
12	41236	271.000243637947	1
12	41320	272.000000017022	3
12	41356	272.000242017022	2
12	41389	272.000243642885	1
12	41473	273.000000017085	3
12	41509	273.000242017085	2
12	41542	273.000243647829	1
12	41626	274.000000017147	3
12	41662	274.000242017147	2
12	41695	274.000243652776	1
12	41779	275.00000001721	3
12	41815	275.00024201721	2
12	41848	275.000243657729	1
12	41932	276.000000017272	3
12	41968	276.000242017272	2
12	42001	276.000243662686	1
12	42085	277.000000017335	3
12	42121	277.000242017335	2
12	42154	277.000243667648	1
12	42238	278.000000017397	3
12	42274	278.000242017397	2
12	42307	278.000243672615	1
12	42391	279.00000001746	3
12	42427	279.00024201746	2
12	42460	279.000243677586	1
12	42544	280.000000017523	3
12	42580	280.000242017523	2
12	42613	280.000243682561	1
12	42697	281.000000017585	3
12	42733	281.000242017585	2
12	42766	281.000243687541	1
12	42850	282.000000017648	3
12	42886	282.000242017648	2
12	42919	282.000243690564	1
12	43003	283.00000001771	3
12	43039	283.00024201771	2
12	43072	283.000243688943	1
12	43156	284.000000017773	3
12	43192	284.000242017773	2
12	43225	284.000243687325	1
12	43309	285.000000017836	3
12	43345	285.000242017836	2
12	43378	285.00024368571	1
12	43462	286.000000017898	3
12	43498	286.000242017898	2
12	43531	286.000243684097	1
12	43615	287.000000017961	3
12	43651	287.000242017961	2
12	43684	287.000243682488	1
12	43768	288.000000018023	3
12	43804	288.000242018023	2
12	43837	288.000243680881	1
12	43921	289.000000018086	3
12	43957	289.000242018086	2
12	43990	289.000243679277	1
12	44074	290.000000018148	3
12	44110	290.000242018148	2
12	44143	290.000243677676	1
12	44227	291.000000018211	3
12	44263	291.000242018211	2
12	44296	291.000243676078	1
12	44380	292.000000018274	3
12	44416	292.000242018274	2
12	44449	292.000243674483	1
12	44533	293.000000018336	3
12	44569	293.000242018336	2
12	44602	293.00024367289	1
12	44686	294.000000018399	3
12	44722	294.000242018399	2
12	44755	294.000243671301	1
12	44839	295.000000018461	3
12	44875	295.000242018461	2
12	44908	295.000243669714	1
12	44992	296.000000018524	3
12	45028	296.000242018524	2
12	45061	296.000243668131	1
12	45145	297.000000018587	3
12	45181	297.000242018587	2
12	45214	297.00024366655	1
12	45298	298.000000018649	3
12	45334	298.000242018649	2
12	45367	298.000243664972	1
12	45451	299.000000018712	3
12	45487	299.000242018712	2
12	45520	299.000243663397	1
13	0	0	1
13	110	1.000242000063	2
13	147	1.000484000063	1
13	262	2.000242000125	2
13	299	2.000484000125	1
13	414	3.000242000188	2
13	451	3.000484000188	1
13	566	4.00024200025	2
13	603	4.00048400025	1
13	718	5.000242000313	2
13	755	5.000484000313	1
13	870	6.000242000375	2
13	907	6.000484000375	1
13	1022	7.000242000438	2
13	1059	7.000484000438	1
13	1174	8.000242000501	2
13	1211	8.000484000501	1
13	1326	9.000242000563	2
13	1363	9.000484000563	1
13	1478	10.000242000626	2
13	1515	10.000484000626	1
13	1630	11.000242000688	2
13	1667	11.000484000688	1
13	1782	12.000242000751	2
13	1819	12.000484000751	1
13	1934	13.000242000814	2
13	1971	13.000484000814	1
13	2086	14.000242000876	2
13	2123	14.000484000876	1
13	2238	15.000242000939	2
13	2275	15.000484000939	1
13	2390	16.000242001001	2
13	2427	16.000484001001	1
13	2542	17.000242001064	2
13	2579	17.000484001064	1
13	2694	18.000242001126	2
13	2731	18.000484001126	1
13	2846	19.000242001189	2
13	2883	19.000484001189	1
13	2998	20.000242001252	2
13	3035	20.000484001252	1
13	3150	21.000242001314	2
13	3187	21.000484001314	1
13	3302	22.000242001377	2
13	3339	22.000484001377	1
13	3454	23.000242001439	2
13	3491	23.000484001439	1
13	3606	24.000242001502	2
13	3643	24.000484001502	1
13	3758	25.000242001565	2
13	3795	25.000484001565	1
13	3910	26.000242001627	2
13	3947	26.000484001627	1
13	4062	27.00024200169	2
13	4099	27.00048400169	1
13	4214	28.000242001752	2
13	4251	28.000484001752	1
13	4366	29.000242001815	2
13	4403	29.000484001815	1
13	4518	30.000242001877	2
13	4555	30.000484001877	1
13	4670	31.00024200194	2
13	4707	31.00048400194	1
13	4822	32.000242002003	2
13	4859	32.000484002003	1
13	4974	33.000242002065	2
13	5011	33.000484002065	1
13	5126	34.000242002128	2
13	5163	34.000484002128	1
13	5278	35.00024200219	2
13	5315	35.00048400219	1
13	5430	36.000242002253	2
13	5467	36.000484002253	1
13	5582	37.000242002315	2
13	5619	37.000484002315	1
13	5734	38.000242002378	2
13	5771	38.000484002378	1
13	5886	39.000242002441	2
13	5923	39.000484002441	1
13	6038	40.000242002503	2
13	6075	40.000484002503	1
13	6190	41.000242002566	2
13	6227	41.000484002566	1
13	6342	42.000242002628	2
13	6379	42.000484002628	1
13	6494	43.000242002691	2
13	6531	43.000484002691	1
13	6646	44.000242002754	2
13	6683	44.000484002754	1
13	6798	45.000242002816	2
13	6835	45.000484002816	1
13	6950	46.000242002879	2
13	6987	46.000484002879	1
13	7102	47.000242002941	2
13	7139	47.000484002941	1
13	7254	48.000242003004	2
13	7291	48.000484003004	1
13	7406	49.000242003066	2
13	7443	49.000484003066	1
13	7558	50.000242003129	2
13	7595	50.000484003129	1
13	7710	51.000242003192	2
13	7747	51.000484003192	1
13	7862	52.000242003254	2
13	7899	52.000484003254	1
13	8014	53.000242003317	2
13	8051	53.000484003317	1
13	8166	54.000242003379	2
13	8203	54.000484003379	1
13	8318	55.000242003442	2
13	8355	55.000484003442	1
13	8470	56.000242003505	2
13	8507	56.000484003505	1
13	8622	57.000242003567	2
13	8659	57.000484003567	1
13	8774	58.00024200363	2
13	8811	58.00048400363	1
13	8926	59.000242003692	2
13	8963	59.000484003692	1
13	9078	60.000242003755	2
13	9115	60.000484003755	1
13	9230	61.000242003817	2
13	9267	61.000484003817	1
13	9382	62.00024200388	2
13	9419	62.00048400388	1
13	9534	63.000242003943	2
13	9571	63.000484003943	1
13	9686	64.000242004005	2
13	9723	64.000484004005	1
13	9838	65.000242004068	2
13	9875	65.000484004068	1
13	9990	66.00024200413	2
13	10027	66.00048400413	1
13	10142	67.000242004193	2
13	10179	67.000484004193	1
13	10294	68.000242004255	2
13	10331	68.000484004255	1
13	10446	69.000242004318	2
13	10483	69.000484004318	1
13	10598	70.000242004381	2
13	10635	70.000484004381	1
13	10750	71.000242004443	2
13	10787	71.000484004443	1
13	10902	72.000242004506	2
13	10939	72.000484004506	1
13	11054	73.000242004568	2
13	11091	73.000484004568	1
13	11206	74.000242004631	2
13	11243	74.000484004631	1
13	11358	75.000242004694	2
13	11395	75.000484004694	1
13	11510	76.000242004756	2
13	11547	76.000484004756	1
13	11662	77.000242004819	2
13	11699	77.000484004819	1
13	11814	78.000242004881	2
13	11851	78.000484004881	1
13	11966	79.000242004944	2
13	12003	79.000484004944	1
13	12118	80.000242005006	2
13	12155	80.000484005006	1
13	12270	81.000242005069	2
13	12307	81.000484005069	1
13	12422	82.000242005132	2
13	12459	82.000484005132	1
13	12574	83.000242005194	2
13	12611	83.000484005194	1
13	12726	84.000242005257	2
13	12763	84.000484005257	1
13	12878	85.000242005319	2
13	12915	85.000484005319	1
13	13030	86.000242005382	2
13	13067	86.000484005382	1
13	13182	87.000242005445	2
13	13219	87.000484005445	1
13	13334	88.000242005507	2
13	13371	88.000484005507	1
13	13486	89.00024200557	2
13	13523	89.00048400557	1
13	13638	90.000242005632	2
13	13675	90.000484005632	1
13	13790	91.000242005695	2
13	13827	91.000484005695	1
13	13942	92.000242005757	2
13	13979	92.000484005757	1
13	14094	93.00024200582	2
13	14131	93.00048400582	1
13	14246	94.000242005883	2
13	14283	94.000484005883	1
13	14398	95.000242005945	2
13	14435	95.000484005945	1
13	14550	96.000242006008	2
13	14587	96.000484006008	1
13	14702	97.00024200607	2
13	14739	97.00048400607	1
13	14854	98.000242006133	2
13	14891	98.000484006133	1
13	15006	99.000242006196	2
13	15043	99.000484006196	1
13	15158	100.000242006258	2
13	15195	100.000484006258	1
13	15310	101.000242006321	2
13	15347	101.000484006321	1
13	15462	102.000242006383	2
13	15499	102.000484006383	1
13	15614	103.000242006446	2
13	15651	103.000484006446	1
13	15766	104.000242005371	2
13	15803	104.000484005371	1
13	15918	105.000242006571	2
13	15955	105.000484006571	1
13	16070	106.000242006634	2
13	16107	106.000484006634	1
13	16222	107.000242006696	2
13	16259	107.000484006696	1
13	16374	108.000242006759	2
13	16411	108.000484006759	1
13	16526	109.000242006821	2
13	16563	109.000484006821	1
13	16678	110.000242006884	2
13	16715	110.000484006884	1
13	16830	111.000242006946	2
13	16867	111.000484006946	1
13	16982	112.000242007009	2
13	17019	112.000484007009	1
13	17134	113.000242007072	2
13	17171	113.000484007072	1
13	17286	114.000242007134	2
13	17323	114.000484007134	1
13	17438	115.000242007197	2
13	17475	115.000484007197	1
13	17590	116.000242007259	2
13	17627	116.000484007259	1
13	17742	117.000242007322	2
13	17779	117.000484007322	1
13	17894	118.000242007385	2
13	17931	118.000484007385	1
13	18046	119.000242007447	2
13	18083	119.000484007447	1
13	18198	120.00024200751	2
13	18235	120.00048400751	1
13	18350	121.000242007572	2
13	18387	121.000484007572	1
13	18502	122.000242007635	2
13	18539	122.000484007635	1
13	18654	123.000242007697	2
13	18691	123.000484007697	1
13	18806	124.00024200776	2
13	18843	124.00048400776	1
13	18958	125.000242007823	2
13	18995	125.000484007823	1
13	19110	126.000242007885	2
13	19147	126.000484007885	1
13	19262	127.000242007948	2
13	19299	127.000484007948	1
13	19414	128.00024200801	2
13	19451	128.00048400801	1
13	19566	129.000242008073	2
13	19603	129.000484008073	1
13	19718	130.000242008136	2
13	19755	130.000484008136	1
13	19870	131.000242008198	2
13	19907	131.000484008198	1
13	20022	132.000242008261	2
13	20059	132.000484008261	1
13	20174	133.000242008323	2
13	20211	133.000484008323	1
13	20326	134.000242008386	2
13	20363	134.000484008386	1
13	20478	135.000242008448	2
13	20515	135.000484008448	1
13	20630	136.000242008511	2
13	20667	136.000484008511	1
13	20782	137.000242008574	2
13	20819	137.000484008574	1
13	20934	138.000242008636	2
13	20971	138.000484008636	1
13	21086	139.000242008699	2
13	21123	139.000484008699	1
13	21238	140.000242008761	2
13	21275	140.000484008761	1
13	21390	141.000242008824	2
13	21427	141.000484008824	1
13	21542	142.000242008886	2
13	21579	142.000484008886	1
13	21694	143.000242008949	2
13	21731	143.000484008949	1
13	21846	144.000242009012	2
13	21883	144.000484009012	1
13	21998	145.000242009074	2
13	22035	145.000484009074	1
13	22150	146.000242009137	2
13	22187	146.000484009137	1
13	22302	147.000242009199	2
13	22339	147.000484009199	1
13	22454	148.000242009262	2
13	22491	148.000484009262	1
13	22606	149.000242009325	2
13	22643	149.000484009325	1
13	22758	150.000242009387	2
13	22795	150.000484009387	1
13	22910	151.00024200945	2
13	22947	151.00048400945	1
13	23062	152.000242009512	2
13	23099	152.000484009512	1
13	23214	153.000242009575	2
13	23251	153.000484009575	1
13	23366	154.000242009637	2
13	23403	154.000484009637	1
13	23518	155.0002420097	2
13	23555	155.0004840097	1
13	23670	156.000242009763	2
13	23707	156.000484009763	1
13	23822	157.000242009825	2
13	23859	157.000484009825	1
13	23974	158.000242009888	2
13	24011	158.000484009888	1
13	24126	159.00024200995	2
13	24163	159.00048400995	1
13	24278	160.000242010013	2
13	24315	160.000484010013	1
13	24430	161.000242010076	2
13	24467	161.000484010076	1
13	24582	162.000242010138	2
13	24619	162.000484010138	1
13	24734	163.000242010201	2
13	24771	163.000484010201	1
13	24886	164.000242010263	2
13	24923	164.000484010263	1
13	25038	165.000242010326	2
13	25075	165.000484010326	1
13	25190	166.000242010388	2
13	25227	166.000484010388	1
13	25342	167.000242010451	2
13	25379	167.000484010451	1
13	25494	168.000242010514	2
13	25531	168.000484010514	1
13	25646	169.000242010576	2
13	25683	169.000484010576	1
13	25798	170.000242010639	2
13	25835	170.000484010639	1
13	25950	171.000242010701	2
13	25987	171.000484010701	1
13	26102	172.000242010764	2
13	26139	172.000484010764	1
13	26254	173.000242010826	2
13	26291	173.000484010826	1
13	26406	174.000242010889	2
13	26443	174.000484010889	1
13	26558	175.000242010952	2
13	26595	175.000484010952	1
13	26710	176.000242011014	2
13	26747	176.000484011014	1
13	26862	177.000242011077	2
13	26899	177.000484011077	1
13	27014	178.000242011139	2
13	27051	178.000484011139	1
13	27166	179.000242011202	2
13	27203	179.000484011202	1
13	27318	180.000242011265	2
13	27355	180.000484011265	1
13	27470	181.000242011327	2
13	27507	181.000484011327	1
13	27622	182.00024201139	2
13	27659	182.00048401139	1
13	27774	183.000242011452	2
13	27811	183.000484011452	1
13	27926	184.000242011515	2
13	27963	184.000484011515	1
13	28078	185.000242011577	2
13	28115	185.000484011577	1
13	28230	186.00024201164	2
13	28267	186.00048401164	1
13	28382	187.000242011703	2
13	28419	187.000484011703	1
13	28534	188.000242011765	2
13	28571	188.000484011765	1
13	28686	189.000242011828	2
13	28723	189.000484011828	1
13	28838	190.00024201189	2
13	28875	190.00048401189	1
13	28990	191.000242011953	2
13	29027	191.000484011953	1
13	29142	192.000242012016	2
13	29179	192.000484012016	1
13	29294	193.000242012078	2
13	29331	193.000484012078	1
13	29446	194.000242012141	2
13	29483	194.000484012141	1
13	29598	195.000242012203	2
13	29635	195.000484012203	1
13	29750	196.000242012266	2
13	29787	196.000484012266	1
13	29902	197.000242012328	2
13	29939	197.000484012328	1
13	30054	198.000242012391	2
13	30091	198.000484012391	1
13	30206	199.000242012454	2
13	30243	199.000484012454	1
13	30358	200.000242012516	2
13	30395	200.000484012516	1
13	30510	201.000242012579	2
13	30547	201.000484012579	1
13	30662	202.000242012641	2
13	30699	202.000484012641	1
13	30814	203.000242012704	2
13	30851	203.000484012704	1
13	30966	204.000242012766	2
13	31003	204.000484012766	1
13	31118	205.000242012829	2
13	31155	205.000484012829	1
13	31270	206.000242012892	2
13	31307	206.000484012892	1
13	31422	207.000242012954	2
13	31459	207.000484012954	1
13	31574	208.000242013017	2
13	31611	208.000484013017	1
13	31726	209.000242013079	2
13	31763	209.000484013079	1
13	31878	210.000242013142	2
13	31915	210.000484013142	1
13	32030	211.000242013205	2
13	32067	211.000484013205	1
13	32183	212.000242013267	2
13	32220	212.000484013267	1
13	32336	213.00024201333	2
13	32373	213.00048401333	1
13	32489	214.000242013392	2
13	32526	214.000484013392	1
13	32642	215.000242013455	2
13	32679	215.000484013455	1
13	32795	216.000242013517	2
13	32832	216.000484013517	1
13	32948	217.00024201358	2
13	32985	217.00048401358	1
13	33101	218.000242013643	2
13	33138	218.000484013643	1
13	33254	219.000242013705	2
13	33291	219.000484013705	1
13	33407	220.000242013768	2
13	33444	220.000484013768	1
13	33560	221.00024201383	2
13	33597	221.00048401383	1
13	33713	222.000242013893	2
13	33750	222.000484013893	1
13	33866	223.000242013956	2
13	33903	223.000484013956	1
13	34019	224.000242014018	2
13	34056	224.000484014018	1
13	34172	225.000242014081	2
13	34209	225.000484014081	1
13	34325	226.000242014143	2
13	34362	226.000484014143	1
13	34478	227.000242014206	2
13	34515	227.000484014206	1
13	34631	228.000242014268	2
13	34668	228.000484014268	1
13	34784	229.000242014331	2
13	34821	229.000484014331	1
13	34937	230.000242014394	2
13	34974	230.000484014394	1
13	35090	231.000242014456	2
13	35127	231.000484014456	1
13	35243	232.000242014519	2
13	35280	232.000484014519	1
13	35396	233.000242014581	2
13	35433	233.000484014581	1
13	35549	234.000242014644	2
13	35586	234.000484014644	1
13	35702	235.000242014707	2
13	35739	235.000484014707	1
13	35855	236.000242014769	2
13	35892	236.000484014769	1
13	36008	237.000242014832	2
13	36045	237.000484014832	1
13	36161	238.000242014894	2
13	36198	238.000484014894	1
13	36314	239.000242014957	2
13	36351	239.000484014957	1
13	36467	240.000242015019	2
13	36504	240.000484015019	1
13	36620	241.000242015082	2
13	36657	241.000484015082	1
13	36773	242.000242015145	2
13	36810	242.000484015145	1
13	36926	243.000242015207	2
13	36963	243.000484015207	1
13	37079	244.00024201527	2
13	37116	244.00048401527	1
13	37232	245.000242015332	2
13	37269	245.000484015332	1
13	37385	246.000242015395	2
13	37422	246.000484015395	1
13	37538	247.000242015457	2
13	37575	247.000484015457	1
13	37691	248.00024201552	2
13	37728	248.00048401552	1
13	37844	249.000242015583	2
13	37881	249.000484015583	1
13	37997	250.000242015645	2
13	38034	250.000484015645	1
13	38150	251.000242015708	2
13	38187	251.000484015708	1
13	38303	252.00024201577	2
13	38340	252.00048401577	1
13	38456	253.000242015833	2
13	38493	253.000484015833	1
13	38609	254.000242015896	2
13	38646	254.000484015896	1
13	38762	255.000242015958	2
13	38799	255.000484015958	1
13	38915	256.000242016021	2
13	38952	256.000484016021	1
13	39068	257.000242016083	2
13	39105	257.000484016083	1
13	39221	258.000242016146	2
13	39258	258.000484016146	1
13	39374	259.000242016208	2
13	39411	259.000484016208	1
13	39527	260.000242016271	2
13	39564	260.000484016271	1
13	39680	261.000242016334	2
13	39717	261.000484016334	1
13	39833	262.000242016396	2
13	39870	262.000484016396	1
13	39986	263.000242016459	2
13	40023	263.000484016459	1
13	40139	264.000242016521	2
13	40176	264.000484016521	1
13	40292	265.000242016584	2
13	40329	265.000484016584	1
13	40445	266.000242016647	2
13	40482	266.000484016647	1
13	40598	267.000242016709	2
13	40635	267.000484016709	1
13	40751	268.000242016772	2
13	40788	268.000484016772	1
13	40904	269.000242016834	2
13	40941	269.000484016834	1
13	41057	270.000242016897	2
13	41094	270.000484016897	1
13	41210	271.000242016959	2
13	41247	271.000484016959	1
13	41363	272.000242017022	2
13	41400	272.000484017022	1
13	41516	273.000242017085	2
13	41553	273.000484017085	1
13	41669	274.000242017147	2
13	41706	274.000484017147	1
13	41822	275.00024201721	2
13	41859	275.00048401721	1
13	41975	276.000242017272	2
13	42012	276.000484017272	1
13	42128	277.000242017335	2
13	42165	277.000484017335	1
13	42281	278.000242017397	2
13	42318	278.000484017397	1
13	42434	279.00024201746	2
13	42471	279.00048401746	1
13	42587	280.000242017523	2
13	42624	280.000484017523	1
13	42740	281.000242017585	2
13	42777	281.000484017585	1
13	42893	282.000242017648	2
13	42930	282.000484017648	1
13	43046	283.00024201771	2
13	43083	283.00048401771	1
13	43199	284.000242017773	2
13	43236	284.000484017773	1
13	43352	285.000242017836	2
13	43389	285.000484017836	1
13	43505	286.000242017898	2
13	43542	286.000484017898	1
13	43658	287.000242017961	2
13	43695	287.000484017961	1
13	43811	288.000242018023	2
13	43848	288.000484018023	1
13	43964	289.000242018086	2
13	44001	289.000484018086	1
13	44117	290.000242018148	2
13	44154	290.000484018148	1
13	44270	291.000242018211	2
13	44307	291.000484018211	1
13	44423	292.000242018274	2
13	44460	292.000484018274	1
13	44576	293.000242018336	2
13	44613	293.000484018336	1
13	44729	294.000242018399	2
13	44766	294.000484018399	1
13	44882	295.000242018461	2
13	44919	295.000484018461	1
13	45035	296.000242018524	2
13	45072	296.000484018524	1
13	45188	297.000242018587	2
13	45225	297.000484018587	1
13	45341	298.000242018649	2
13	45378	298.000484018649	1
13	45494	299.000242018712	2
13	45531	299.000484018712	1
14	0	0	1
14	74	1.000000006626	3
14	121	1.000242006626	2
14	148	1.000484000126	1
14	226	2.000000013252	3
14	273	2.000242013252	2
14	300	2.00048400025	1
14	378	3.000000019878	3
14	425	3.000242019878	2
14	452	3.000484000376	1
14	530	4.000000026504	3
14	577	4.000242026504	2
14	604	4.0004840005	1
14	682	5.00000003313	3
14	729	5.00024203313	2
14	756	5.000484000626	1
14	834	6.000000039756	3
14	881	6.000242039756	2
14	908	6.000484000751	1
14	986	7.000000046382	3
14	1033	7.000242046382	2
14	1060	7.000484000876	1
14	1138	8.000000053008	3
14	1185	8.000242053008	2
14	1212	8.000484001002	1
14	1290	9.000000059634	3
14	1337	9.000242059634	2
14	1364	9.000484001126	1
14	1442	10.000000066259	3
14	1489	10.000242066259	2
14	1516	10.000484001252	1
14	1594	11.000000072885	3
14	1641	11.000242072885	2
14	1668	11.000484001376	1
14	1746	12.000000079511	3
14	1793	12.000242079511	2
14	1820	12.000484001502	1
14	1898	13.000000086137	3
14	1945	13.000242086137	2
14	1972	13.000484001628	1
14	2050	14.000000092763	3
14	2097	14.000242092763	2
14	2124	14.000484001752	1
14	2202	15.000000099389	3
14	2249	15.000242099389	2
14	2276	15.000484001878	1
14	2354	16.000000106015	3
14	2401	16.000242106015	2
14	2428	16.000484002002	1
14	2506	17.000000112641	3
14	2553	17.000242112641	2
14	2580	17.000484002128	1
14	2658	18.000000119267	3
14	2705	18.000242119267	2
14	2732	18.000484002252	1
14	2810	19.000000125893	3
14	2857	19.000242125893	2
14	2884	19.000484002378	1
14	2962	20.000000132519	3
14	3009	20.000242132519	2
14	3036	20.000484002504	1
14	3114	21.000000139145	3
14	3161	21.000242139145	2
14	3188	21.000484002628	1
14	3266	22.000000145771	3
14	3313	22.000242145771	2
14	3340	22.000484002754	1
14	3418	23.000000152397	3
14	3465	23.000242152397	2
14	3492	23.000484002878	1
14	3570	24.000000159023	3
14	3617	24.000242159023	2
14	3644	24.000484003004	1
14	3722	25.000000165649	3
14	3769	25.000242165649	2
14	3796	25.00048400313	1
14	3874	26.000000172275	3
14	3921	26.000242172275	2
14	3948	26.000484003254	1
14	4026	27.000000178901	3
14	4073	27.000242178901	2
14	4100	27.00048400338	1
14	4178	28.000000185527	3
14	4225	28.000242185527	2
14	4252	28.000484003504	1
14	4330	29.000000192152	3
14	4377	29.000242192152	2
14	4404	29.00048400363	1
14	4484	30.000000198778	3
14	4534	30.000242198778	2
14	4556	30.000484003754	1
14	4636	31.000000205404	3
14	4686	31.000242205404	2
14	4708	31.00048400388	1
14	4788	32.00000021203	3
14	4838	32.00024221203	2
14	4860	32.000484004006	1
14	4940	33.000000218656	3
14	4990	33.000242218656	2
14	5012	33.00048400413	1
14	5092	34.000000225282	3
14	5142	34.000242225282	2
14	5164	34.000484004256	1
14	5244	35.000000231908	3
14	5294	35.000242231908	2
14	5316	35.00048400438	1
14	5396	36.000000238534	3
14	5446	36.000242238534	2
14	5468	36.000484004506	1
14	5548	37.00000024516	3
14	5598	37.00024224516	2
14	5620	37.000484004631	1
14	5700	38.000000251786	3
14	5750	38.000242251786	2
14	5772	38.000484004756	1
14	5852	39.000000258412	3
14	5902	39.000242258412	2
14	5924	39.000484004882	1
14	6004	40.000000265038	3
14	6054	40.000242265038	2
14	6076	40.000484005006	1
14	6156	41.000000271664	3
14	6206	41.000242271664	2
14	6228	41.000484005132	1
14	6308	42.00000027829	3
14	6358	42.00024227829	2
14	6380	42.000484005256	1
14	6460	43.000000284916	3
14	6510	43.000242284916	2
14	6532	43.000484005382	1
14	6612	44.000000291542	3
14	6662	44.000242291542	2
14	6684	44.000484005508	1
14	6766	45.000000298168	3
14	6816	45.000242298168	2
14	6836	45.000484005632	1
14	6920	46.000000304794	3
14	6970	46.000242304794	2
14	6988	46.000484005758	1
14	7072	47.000000311419	3
14	7122	47.000242311419	2
14	7140	47.000484005882	1
14	7224	48.000000318045	3
14	7274	48.000242318045	2
14	7292	48.000484006008	1
14	7376	49.000000324671	3
14	7426	49.000242324671	2
14	7444	49.000484006132	1
14	7528	50.000000331297	3
14	7578	50.000242331297	2
14	7596	50.000484006258	1
14	7680	51.000000337923	3
14	7730	51.000242337923	2
14	7748	51.000484006384	1
14	7832	52.000000344549	3
14	7882	52.000242344549	2
14	7900	52.000484006508	1
14	7984	53.000000351175	3
14	8034	53.000242351175	2
14	8052	53.000484006634	1
14	8136	54.000000357801	3
14	8186	54.000242357801	2
14	8204	54.000484006758	1
14	8288	55.000000364427	3
14	8338	55.000242364427	2
14	8356	55.000484006884	1
14	8440	56.000000371053	3
14	8490	56.000242371053	2
14	8508	56.00048400701	1
14	8592	57.000000377679	3
14	8642	57.000242377679	2
14	8660	57.000484007134	1
14	8744	58.000000384305	3
14	8794	58.000242384305	2
14	8812	58.00048400726	1
14	8896	59.000000390931	3
14	8946	59.000242390931	2
14	8964	59.000484007384	1
14	9048	60.000000397557	3
14	9098	60.000242397557	2
14	9116	60.00048400751	1
14	9200	61.000000404183	3
14	9250	61.000242404183	2
14	9268	61.000484007634	1
14	9352	62.000000410809	3
14	9402	62.000242410809	2
14	9420	62.00048400776	1
14	9504	63.000000417435	3
14	9554	63.000242417435	2
14	9572	63.000484007886	1
14	9656	64.000000424061	3
14	9706	64.000242424061	2
14	9724	64.00048400801	1
14	9808	65.000000430687	3
14	9858	65.000242430687	2
14	9876	65.000484008136	1
14	9960	66.000000437312	3
14	10010	66.000242437312	2
14	10028	66.00048400826	1
14	10112	67.000000443938	3
14	10162	67.000242443938	2
14	10180	67.000484008386	1
14	10264	68.000000450564	3
14	10314	68.000242450564	2
14	10332	68.000484008511	1
14	10416	69.00000045719	3
14	10466	69.00024245719	2
14	10484	69.000484008636	1
14	10568	70.000000463816	3
14	10618	70.000242463816	2
14	10636	70.000484008762	1
14	10720	71.000000470442	3
14	10770	71.000242470442	2
14	10788	71.000484008886	1
14	10872	72.000000477068	3
14	10922	72.000242477068	2
14	10940	72.000484009012	1
14	11024	73.000000483694	3
14	11074	73.000242483694	2
14	11092	73.000484009136	1
14	11176	74.00000049032	3
14	11226	74.00024249032	2
14	11244	74.000484009262	1
14	11328	75.000000496946	3
14	11378	75.000242496946	2
14	11396	75.000484009388	1
14	11480	76.000000503572	3
14	11530	76.000242503572	2
14	11548	76.000484009512	1
14	11632	77.000000510198	3
14	11682	77.000242510198	2
14	11700	77.000484009638	1
14	11784	78.000000516824	3
14	11834	78.000242516824	2
14	11852	78.000484009762	1
14	11936	79.00000052345	3
14	11986	79.00024252345	2
14	12004	79.000484009888	1
14	12088	80.000000530076	3
14	12138	80.000242530076	2
14	12156	80.000484010012	1
14	12240	81.000000536702	3
14	12290	81.000242536702	2
14	12308	81.000484010138	1
14	12392	82.000000543328	3
14	12442	82.000242543328	2
14	12460	82.000484010264	1
14	12544	83.000000549954	3
14	12594	83.000242549954	2
14	12612	83.000484010388	1
14	12695	84.000000555702	3
14	12745	84.000242555702	2
14	12764	84.000484010514	1
14	12847	85.000000559218	3
14	12897	85.000242559218	2
14	12916	85.000484010638	1
14	12999	86.000000562742	3
14	13049	86.000242562742	2
14	13068	86.000484010764	1
14	13151	87.000000566273	3
14	13201	87.000242566273	2
14	13220	87.00048401089	1
14	13301	88.000000569812	3
14	13351	88.000242569812	2
14	13372	88.000484011014	1
14	13451	89.000000573357	3
14	13501	89.000242573357	2
14	13524	89.00048401114	1
14	13603	90.00000057691	3
14	13653	90.00024257691	2
14	13676	90.000484011264	1
14	13755	91.00000058047	3
14	13805	91.00024258047	2
14	13828	91.00048401139	1
14	13907	92.000000584036	3
14	13957	92.000242584036	2
14	13980	92.000484011514	1
14	14059	93.000000587609	3
14	14109	93.000242587609	2
14	14132	93.00048401164	1
14	14211	94.000000591189	3
14	14261	94.000242591189	2
14	14284	94.000484011766	1
14	14363	95.000000594775	3
14	14413	95.000242594775	2
14	14436	95.00048401189	1
14	14515	96.000000598368	3
14	14565	96.000242598368	2
14	14588	96.000484012016	1
14	14667	97.000000601967	3
14	14717	97.000242601967	2
14	14740	97.00048401214	1
14	14819	98.000000605572	3
14	14869	98.000242605572	2
14	14892	98.000484012266	1
14	14971	99.000000609182	3
14	15021	99.000242609182	2
14	15044	99.000484012392	1
14	15123	100.000000612799	3
14	15173	100.000242612799	2
14	15196	100.000484012516	1
14	15275	101.000000616422	3
14	15325	101.000242616422	2
14	15348	101.000484012642	1
14	15427	102.00000062005	3
14	15477	102.00024262005	2
14	15500	102.000484012766	1
14	15579	103.000000623684	3
14	15629	103.000242623684	2
14	15652	103.000484012892	1
14	15732	104.000000627323	3
14	15782	104.000242627323	2
14	15804	104.000484010742	1
14	15884	105.000000629442	3
14	15934	105.000242629442	2
14	15956	105.000484013142	1
14	16036	106.000000627698	3
14	16086	106.000242627698	2
14	16108	106.000484013268	1
14	16188	107.000000625955	3
14	16238	107.000242625955	2
14	16260	107.000484013392	1
14	16340	108.000000624214	3
14	16390	108.000242624214	2
14	16412	108.000484013518	1
14	16492	109.000000622474	3
14	16542	109.000242622474	2
14	16564	109.000484013642	1
14	16644	110.000000620736	3
14	16694	110.000242620736	2
14	16716	110.000484013768	1
14	16796	111.000000618999	3
14	16846	111.000242618999	2
14	16868	111.000484013892	1
14	16948	112.000000617264	3
14	16998	112.000242617264	2
14	17020	112.000484014018	1
14	17100	113.00000061553	3
14	17150	113.00024261553	2
14	17172	113.000484014144	1
14	17252	114.000000613798	3
14	17302	114.000242613798	2
14	17324	114.000484014268	1
14	17404	115.000000612067	3
14	17454	115.000242612067	2
14	17476	115.000484014394	1
14	17556	116.000000610337	3
14	17606	116.000242610337	2
14	17628	116.000484014518	1
14	17708	117.00000060861	3
14	17758	117.00024260861	2
14	17780	117.000484014644	1
14	17860	118.000000606884	3
14	17910	118.000242606884	2
14	17932	118.00048401477	1
14	18012	119.000000605159	3
14	18062	119.000242605159	2
14	18084	119.000484014894	1
14	18164	120.000000603436	3
14	18214	120.000242603436	2
14	18236	120.00048401502	1
14	18316	121.000000601714	3
14	18366	121.000242601714	2
14	18388	121.000484015144	1
14	18468	122.000000599995	3
14	18518	122.000242599995	2
14	18540	122.00048401527	1
14	18620	123.000000598276	3
14	18670	123.000242598276	2
14	18692	123.000484015394	1
14	18772	124.00000059656	3
14	18822	124.00024259656	2
14	18844	124.00048401552	1
14	18924	125.000000594845	3
14	18974	125.000242594845	2
14	18996	125.000484015646	1
14	19076	126.000000593132	3
14	19126	126.000242593132	2
14	19148	126.00048401577	1
14	19228	127.00000059142	3
14	19278	127.00024259142	2
14	19300	127.000484015896	1
14	19380	128.00000058971	3
14	19430	128.00024258971	2
14	19452	128.00048401602	1
14	19532	129.000000588002	3
14	19582	129.000242588002	2
14	19604	129.000484016146	1
14	19684	130.000000586296	3
14	19734	130.000242586296	2
14	19756	130.000484016272	1
14	19836	131.000000584591	3
14	19886	131.000242584591	2
14	19908	131.000484016396	1
14	19988	132.000000582888	3
14	20038	132.000242582888	2
14	20060	132.000484016522	1
14	20140	133.000000581187	3
14	20190	133.000242581187	2
14	20212	133.000484016646	1
14	20292	134.000000579488	3
14	20342	134.000242579488	2
14	20364	134.000484016772	1
14	20444	135.00000057779	3
14	20494	135.00024257779	2
14	20516	135.000484016896	1
14	20596	136.000000576094	3
14	20646	136.000242576094	2
14	20668	136.000484017022	1
14	20748	137.0000005744	3
14	20798	137.0002425744	2
14	20820	137.000484017148	1
14	20900	138.000000572708	3
14	20950	138.000242572708	2
14	20972	138.000484017272	1
14	21052	139.000000571018	3
14	21102	139.000242571018	2
14	21124	139.000484017398	1
14	21204	140.00000056933	3
14	21254	140.00024256933	2
14	21276	140.000484017522	1
14	21356	141.000000567643	3
14	21406	141.000242567643	2
14	21428	141.000484017648	1
14	21506	142.000000565959	3
14	21553	142.000242565959	2
14	21580	142.000484017772	1
14	21658	143.000000564276	3
14	21705	143.000242564276	2
14	21732	143.000484017898	1
14	21810	144.000000562596	3
14	21857	144.000242562596	2
14	21884	144.000484018024	1
14	21962	145.000000560917	3
14	22009	145.000242560917	2
14	22036	145.000484018148	1
14	22114	146.00000055924	3
14	22161	146.00024255924	2
14	22188	146.000484018274	1
14	22266	147.000000557566	3
14	22313	147.000242557566	2
14	22340	147.000484018398	1
14	22418	148.000000555893	3
14	22465	148.000242555893	2
14	22492	148.000484018524	1
14	22570	149.000000554223	3
14	22617	149.000242554223	2
14	22644	149.00048401865	1
14	22722	150.000000552554	3
14	22769	150.000242552554	2
14	22796	150.000484018774	1
14	22874	151.000000550888	3
14	22921	151.000242550888	2
14	22948	151.0004840189	1
14	23026	152.000000549223	3
14	23073	152.000242549223	2
14	23100	152.000484019024	1
14	23178	153.000000547561	3
14	23225	153.000242547561	2
14	23252	153.00048401915	1
14	23330	154.000000545901	3
14	23377	154.000242545901	2
14	23404	154.000484019274	1
14	23482	155.000000544243	3
14	23529	155.000242544243	2
14	23556	155.0004840194	1
14	23634	156.000000542587	3
14	23681	156.000242542587	2
14	23708	156.000484019526	1
14	23786	157.000000540934	3
14	23833	157.000242540934	2
14	23860	157.00048401965	1
14	23938	158.000000539283	3
14	23985	158.000242539283	2
14	24012	158.000484019776	1
14	24090	159.000000537633	3
14	24137	159.000242537633	2
14	24164	159.0004840199	1
14	24242	160.000000535987	3
14	24289	160.000242535987	2
14	24316	160.000484020026	1
14	24394	161.000000534342	3
14	24441	161.000242534342	2
14	24468	161.000484020152	1
14	24546	162.0000005327	3
14	24593	162.0002425327	2
14	24620	162.000484020276	1
14	24698	163.00000053106	3
14	24745	163.00024253106	2
14	24772	163.000484020402	1
14	24850	164.000000529422	3
14	24897	164.000242529422	2
14	24924	164.000484020526	1
14	25002	165.000000527787	3
14	25049	165.000242527787	2
14	25076	165.000484020652	1
14	25154	166.000000526154	3
14	25201	166.000242526154	2
14	25228	166.000484020776	1
14	25306	167.000000524524	3
14	25353	167.000242524524	2
14	25380	167.000484020902	1
14	25458	168.000000522896	3
14	25505	168.000242522896	2
14	25532	168.000484021028	1
14	25610	169.00000052127	3
14	25657	169.00024252127	2
14	25684	169.000484021152	1
14	25762	170.000000519647	3
14	25809	170.000242519647	2
14	25836	170.000484021278	1
14	25914	171.000000518027	3
14	25961	171.000242518027	2
14	25988	171.000484021402	1
14	26066	172.000000516409	3
14	26113	172.000242516409	2
14	26140	172.000484021528	1
14	26218	173.000000514793	3
14	26265	173.000242514793	2
14	26292	173.000484021653	1
14	26370	174.00000051318	3
14	26417	174.00024251318	2
14	26444	174.000484021778	1
14	26522	175.00000051157	3
14	26569	175.00024251157	2
14	26596	175.000484021904	1
14	26674	176.000000509962	3
14	26721	176.000242509962	2
14	26748	176.000484022028	1
14	26826	177.000000508357	3
14	26873	177.000242508357	2
14	26900	177.000484022154	1
14	26978	178.000000506755	3
14	27025	178.000242506755	2
14	27052	178.000484022278	1
14	27130	179.000000505155	3
14	27177	179.000242505155	2
14	27204	179.000484022404	1
14	27282	180.000000503558	3
14	27329	180.000242503558	2
14	27356	180.00048402253	1
14	27434	181.000000501964	3
14	27481	181.000242501964	2
14	27508	181.000484022654	1
14	27586	182.000000500372	3
14	27633	182.000242500372	2
14	27660	182.00048402278	1
14	27738	183.000000498784	3
14	27785	183.000242498784	2
14	27812	183.000484022904	1
14	27890	184.000000497198	3
14	27937	184.000242497198	2
14	27964	184.00048402303	1
14	28042	185.000000495615	3
14	28089	185.000242495615	2
14	28116	185.000484023154	1
14	28194	186.000000494035	3
14	28241	186.000242494035	2
14	28268	186.00048402328	1
14	28346	187.000000492458	3
14	28393	187.000242492458	2
14	28420	187.000484023406	1
14	28498	188.000000490883	3
14	28545	188.000242490883	2
14	28572	188.00048402353	1
14	28650	189.000000489312	3
14	28697	189.000242489312	2
14	28724	189.000484023656	1
14	28802	190.000000487744	3
14	28849	190.000242487744	2
14	28876	190.00048402378	1
14	28954	191.000000486179	3
14	29001	191.000242486179	2
14	29028	191.000484023906	1
14	29106	192.000000484616	3
14	29153	192.000242484616	2
14	29180	192.000484024032	1
14	29258	193.000000483057	3
14	29305	193.000242483057	2
14	29332	193.000484024156	1
14	29410	194.000000481501	3
14	29457	194.000242481501	2
14	29484	194.000484024282	1
14	29562	195.000000479949	3
14	29609	195.000242479949	2
14	29636	195.000484024406	1
14	29714	196.000000478399	3
14	29761	196.000242478399	2
14	29788	196.000484024532	1
14	29866	197.000000476852	3
14	29913	197.000242476852	2
14	29940	197.000484024656	1
14	30018	198.000000475309	3
14	30065	198.000242475309	2
14	30092	198.000484024782	1
14	30170	199.000000473769	3
14	30217	199.000242473769	2
14	30244	199.000484024908	1
14	30322	200.000000472233	3
14	30369	200.000242472233	2
14	30396	200.000484025032	1
14	30474	201.000000470699	3
14	30521	201.000242470699	2
14	30548	201.000484025158	1
14	30626	202.000000469169	3
14	30673	202.000242469169	2
14	30700	202.000484025282	1
14	30778	203.000000467643	3
14	30825	203.000242467643	2
14	30852	203.000484025408	1
14	30930	204.000000466119	3
14	30977	204.000242466119	2
14	31004	204.000484025533	1
14	31082	205.0000004646	3
14	31129	205.0002424646	2
14	31156	205.000484025658	1
14	31234	206.000000463084	3
14	31281	206.000242463084	2
14	31308	206.000484025784	1
14	31386	207.000000461571	3
14	31433	207.000242461571	2
14	31460	207.000484025908	1
14	31538	208.000000460062	3
14	31585	208.000242460062	2
14	31612	208.000484026034	1
14	31690	209.000000458556	3
14	31737	209.000242458556	2
14	31764	209.000484026158	1
14	31842	210.000000457055	3
14	31889	210.000242457055	2
14	31916	210.000484026284	1
14	31994	211.000000455556	3
14	32041	211.000242455556	2
14	32068	211.00048402641	1
14	32147	212.000000454062	3
14	32194	212.000242454062	2
14	32221	212.000484026534	1
14	32300	213.000000452571	3
14	32347	213.000242452571	2
14	32374	213.00048402666	1
14	32453	214.000000451084	3
14	32500	214.000242451084	2
14	32527	214.000484026784	1
14	32606	215.000000449601	3
14	32653	215.000242449601	2
14	32680	215.00048402691	1
14	32759	216.000000448122	3
14	32806	216.000242448122	2
14	32833	216.000484027034	1
14	32912	217.000000446647	3
14	32959	217.000242446647	2
14	32986	217.00048402716	1
14	33065	218.000000445175	3
14	33112	218.000242445175	2
14	33139	218.000484027286	1
14	33216	219.000000443708	3
14	33263	219.000242443708	2
14	33292	219.00048402741	1
14	33369	220.000000442244	3
14	33416	220.000242442244	2
14	33445	220.000484027536	1
14	33520	221.000000440785	3
14	33564	221.000242440785	2
14	33598	221.00048402766	1
14	33673	222.00000043933	3
14	33717	222.00024243933	2
14	33751	222.000484027786	1
14	33826	223.000000437879	3
14	33870	223.000242437879	2
14	33904	223.000484027912	1
14	33979	224.000000436432	3
14	34023	224.000242436432	2
14	34057	224.000484028036	1
14	34132	225.000000434989	3
14	34176	225.000242434989	2
14	34210	225.000484028162	1
14	34285	226.000000433551	3
14	34329	226.000242433551	2
14	34363	226.000484028286	1
14	34438	227.000000432117	3
14	34482	227.000242432117	2
14	34516	227.000484028412	1
14	34591	228.000000430687	3
14	34635	228.000242430687	2
14	34669	228.000484028536	1
14	34744	229.000000429261	3
14	34788	229.000242429261	2
14	34822	229.000484028662	1
14	34897	230.00000042784	3
14	34941	230.00024242784	2
14	34975	230.000484028788	1
14	35050	231.000000426424	3
14	35094	231.000242426424	2
14	35128	231.000484028912	1
14	35203	232.000000425012	3
14	35247	232.000242425012	2
14	35281	232.000484029038	1
14	35356	233.000000423605	3
14	35400	233.000242423605	2
14	35434	233.000484029162	1
14	35509	234.000000422202	3
14	35553	234.000242422202	2
14	35587	234.000484029288	1
14	35662	235.000000420804	3
14	35706	235.000242420804	2
14	35740	235.000484029414	1
14	35815	236.00000041941	3
14	35859	236.00024241941	2
14	35893	236.000484029538	1
14	35968	237.000000418022	3
14	36012	237.000242418022	2
14	36046	237.000484029664	1
14	36121	238.000000416638	3
14	36165	238.000242416638	2
14	36199	238.000484029788	1
14	36274	239.000000415259	3
14	36318	239.000242415259	2
14	36352	239.000484029914	1
14	36427	240.000000413885	3
14	36471	240.000242413885	2
14	36505	240.000484030038	1
14	36580	241.000000412516	3
14	36624	241.000242412516	2
14	36658	241.000484030164	1
14	36733	242.000000411151	3
14	36777	242.000242411151	2
14	36811	242.00048403029	1
14	36886	243.000000409792	3
14	36930	243.000242409792	2
14	36964	243.000484030414	1
14	37039	244.000000408438	3
14	37083	244.000242408438	2
14	37117	244.00048403054	1
14	37192	245.00000040709	3
14	37236	245.00024240709	2
14	37270	245.000484030664	1
14	37345	246.000000405746	3
14	37389	246.000242405746	2
14	37423	246.00048403079	1
14	37498	247.000000404408	3
14	37542	247.000242404408	2
14	37576	247.000484030914	1
14	37651	248.000000403074	3
14	37695	248.000242403074	2
14	37729	248.00048403104	1
14	37804	249.000000401747	3
14	37848	249.000242401747	2
14	37882	249.000484031166	1
14	37957	250.000000400424	3
14	38001	250.000242400424	2
14	38035	250.00048403129	1
14	38110	251.000000399108	3
14	38154	251.000242399108	2
14	38188	251.000484031416	1
14	38263	252.000000397796	3
14	38307	252.000242397796	2
14	38341	252.00048403154	1
14	38416	253.00000039649	3
14	38460	253.00024239649	2
14	38494	253.000484031666	1
14	38569	254.00000039519	3
14	38613	254.00024239519	2
14	38647	254.000484031792	1
14	38722	255.000000393896	3
14	38766	255.000242393896	2
14	38800	255.000484031916	1
14	38875	256.000000392607	3
14	38919	256.000242392607	2
14	38953	256.000484032042	1
14	39028	257.000000391324	3
14	39072	257.000242391324	2
14	39106	257.000484032166	1
14	39181	258.000000390047	3
14	39225	258.000242390047	2
14	39259	258.000484032292	1
14	39334	259.000000388776	3
14	39378	259.000242388776	2
14	39412	259.000484032416	1
14	39487	260.000000387511	3
14	39531	260.000242387511	2
14	39565	260.000484032542	1
14	39640	261.000000386252	3
14	39684	261.000242386252	2
14	39718	261.000484032668	1
14	39793	262.000000384999	3
14	39837	262.000242384999	2
14	39871	262.000484032792	1
14	39946	263.000000383752	3
14	39990	263.000242383752	2
14	40024	263.000484032918	1
14	40099	264.000000382511	3
14	40143	264.000242382511	2
14	40177	264.000484033042	1
14	40252	265.000000381277	3
14	40296	265.000242381277	2
14	40330	265.000484033168	1
14	40405	266.000000380049	3
14	40449	266.000242380049	2
14	40483	266.000484033294	1
14	40558	267.000000378827	3
14	40602	267.000242378827	2
14	40636	267.000484033418	1
14	40711	268.000000377612	3
14	40755	268.000242377612	2
14	40789	268.000484033544	1
14	40864	269.000000376403	3
14	40908	269.000242376403	2
14	40942	269.000484033668	1
14	41017	270.000000375201	3
14	41061	270.000242375201	2
14	41095	270.000484033794	1
14	41170	271.000000374006	3
14	41214	271.000242374006	2
14	41248	271.000484033918	1
14	41323	272.000000372817	3
14	41367	272.000242372817	2
14	41401	272.000484034044	1
14	41476	273.000000371635	3
14	41520	273.000242371635	2
14	41554	273.00048403417	1
14	41629	274.00000037046	3
14	41673	274.00024237046	2
14	41707	274.000484034294	1
14	41782	275.000000369291	3
14	41826	275.000242369291	2
14	41860	275.00048403442	1
14	41935	276.00000036813	3
14	41979	276.00024236813	2
14	42013	276.000484034544	1
14	42088	277.000000366976	3
14	42132	277.000242366976	2
14	42166	277.00048403467	1
14	42241	278.000000365828	3
14	42285	278.000242365828	2
14	42319	278.000484034794	1
14	42394	279.000000364688	3
14	42438	279.000242364688	2
14	42472	279.00048403492	1
14	42547	280.000000363556	3
14	42591	280.000242363556	2
14	42625	280.000484035046	1
14	42700	281.00000036243	3
14	42744	281.00024236243	2
14	42778	281.00048403517	1
14	42853	282.000000361312	3
14	42897	282.000242361312	2
14	42931	282.000484035296	1
14	43006	283.000000360201	3
14	43050	283.000242360201	2
14	43084	283.00048403542	1
14	43159	284.000000359098	3
14	43203	284.000242359098	2
14	43237	284.000484035546	1
14	43312	285.000000358003	3
14	43356	285.000242358003	2
14	43390	285.000484035672	1
14	43465	286.000000356915	3
14	43509	286.000242356915	2
14	43543	286.000484035796	1
14	43618	287.000000355835	3
14	43662	287.000242355835	2
14	43696	287.000484035922	1
14	43771	288.000000354762	3
14	43815	288.000242354762	2
14	43849	288.000484036046	1
14	43924	289.000000353698	3
14	43968	289.000242353698	2
14	44002	289.000484036172	1
14	44077	290.000000352641	3
14	44121	290.000242352641	2
14	44155	290.000484036296	1
14	44230	291.000000351592	3
14	44274	291.000242351592	2
14	44308	291.000484036422	1
14	44383	292.000000350552	3
14	44427	292.000242350552	2
14	44461	292.000484036548	1
14	44536	293.000000349519	3
14	44580	293.000242349519	2
14	44614	293.000484036672	1
14	44689	294.000000348495	3
14	44733	294.000242348495	2
14	44767	294.000484036798	1
14	44842	295.000000347479	3
14	44886	295.000242347479	2
14	44920	295.000484036922	1
14	44995	296.000000346472	3
14	45039	296.000242346472	2
14	45073	296.000484037048	1
14	45148	297.000000345473	3
14	45192	297.000242345473	2
[...]
76	29486	194.000484486992	48
76	29638	195.000484485495	48
76	29790	196.000484484001	48
76	29942	197.000484482511	48
76	30094	198.000484481025	48
76	30246	199.000484479543	48
76	30398	200.000484478064	48
76	30550	201.00048447659	48
76	30702	202.000484475119	48
76	30854	203.000484473653	48
76	31006	204.000484472189	48
76	31158	205.000484470731	48
76	31310	206.000484469277	48
76	31462	207.000484467825	48
76	31614	208.000484466379	48
76	31766	209.000484464937	48
76	31918	210.000484463499	48
76	32070	211.000484462066	48
76	32223	212.000484460636	48
76	32376	213.000484459211	48
76	32529	214.00048445779	48
76	32682	215.000484456374	48
76	32835	216.000484454962	48
76	32988	217.000484453555	48
76	33141	218.000484452153	48
76	33294	219.000484450754	48
76	33447	220.000484449361	48
76	33600	221.000484447972	48
76	33753	222.000484446589	48
76	33906	223.00048444521	48
76	34059	224.000484443836	48
76	34212	225.000484442467	48
76	34365	226.000484441102	48
76	34518	227.000484439743	48
76	34671	228.000484438389	48
76	34824	229.00048443704	48
76	34977	230.000484435697	48
76	35130	231.000484434357	48
76	35283	232.000484433024	48
76	35436	233.000484431696	48
76	35589	234.000484430374	48
76	35742	235.000484429057	48
76	35895	236.000484427744	48
76	36048	237.000484426439	48
76	36201	238.000484425137	48
76	36354	239.000484423843	48
76	36507	240.000484422553	48
76	36660	241.00048442127	48
76	36813	242.000484419993	48
76	36966	243.00048441872	48
76	37119	244.000484417455	48
76	37272	245.000484416195	48
76	37425	246.000484414941	48
76	37578	247.000484413693	48
76	37731	248.000484412452	48
76	37884	249.000484411217	48
76	38037	250.000484409988	48
76	38190	251.000484408765	48
76	38343	252.000484407549	48
76	38496	253.00048440634	48
76	38649	254.000484405137	48
76	38802	255.00048440394	48
76	38955	256.00048440275	48
76	39108	257.000484401567	48
76	39261	258.000484400391	48
76	39414	259.000484399221	48
76	39567	260.000484398059	48
76	39720	261.000484396904	48
76	39873	262.000484395755	48
76	40026	263.000484394615	48
76	40179	264.00048439348	48
76	40332	265.000484392354	48
76	40485	266.000484391235	48
76	40638	267.000484390122	48
76	40791	268.000484389019	48
76	40944	269.000484387921	48
76	41097	270.000484386832	48
76	41250	271.00048438575	48
76	41403	272.000484384677	48
76	41556	273.000484383612	48
76	41709	274.000484382553	48
76	41862	275.000484381504	48
76	42015	276.000484380461	48
76	42168	277.000484379428	48
76	42321	278.000484378402	48
76	42474	279.000484377385	48
76	42627	280.000484376377	48
76	42780	281.000484375376	48
76	42933	282.000484374385	48
76	43086	283.000484373401	48
76	43239	284.000484372427	48
76	43392	285.000484371461	48
76	43545	286.000484370504	48
76	43698	287.000484369556	48
76	43851	288.000484368617	48
76	44004	289.000484367687	48
76	44157	290.000484366766	48
76	44310	291.000484365854	48
76	44463	292.000484364952	48
76	44616	293.000484364059	48
76	44769	294.000484363176	48
76	44922	295.000484362301	48
76	45075	296.000484361437	48
76	45228	297.000484360583	48
76	45381	298.000484359737	48
76	45534	299.000484358902	48
77	154	1.000484319648	48
77	306	2.000484325674	48
77	458	3.000484331704	48
77	610	4.000484337737	48
77	762	5.000484343775	48
77	914	6.000484349815	48
77	1066	7.000484355859	48
77	1218	8.000484361906	48
77	1370	9.000484367956	48
77	1522	10.000484374009	48
77	1674	11.000484380064	48
77	1826	12.000484386122	48
77	1978	13.000484392183	48
77	2130	14.000484398245	48
77	2282	15.00048440431	48
77	2434	16.000484410377	48
77	2586	17.000484416446	48
77	2738	18.000484422517	48
77	2890	19.00048442859	48
77	3042	20.000484434665	48
77	3194	21.000484440741	48
77	3346	22.000484446819	48
77	3498	23.000484452898	48
77	3650	24.00048445898	48
77	3802	25.000484465062	48
77	3954	26.000484471146	48
77	4106	27.000484477231	48
77	4258	28.000484483317	48
77	4410	29.000484489406	48
77	4562	30.000484495494	48
77	4714	31.000484501585	48
77	4866	32.000484507676	48
77	5018	33.000484513768	48
77	5170	34.000484519862	48
77	5322	35.000484525955	48
77	5474	36.000484532051	48
77	5626	37.000484538147	48
77	5778	38.000484544244	48
77	5930	39.000484550343	48
77	6082	40.000484556441	48
77	6234	41.000484562541	48
77	6386	42.000484568641	48
77	6538	43.000484574743	48
77	6690	44.000484580845	48
77	6842	45.000484586947	48
77	6994	46.000484593051	48
77	7146	47.000484599155	48
77	7298	48.00048460526	48
77	7450	49.000484611365	48
77	7602	50.000484617471	48
77	7754	51.000484623578	48
77	7906	52.000484629685	48
77	8058	53.000484635793	48
77	8210	54.000484641901	48
77	8362	55.00048464801	48
77	8514	56.00048465412	48
77	8666	57.000484660229	48
77	8818	58.00048466634	48
77	8970	59.00048467245	48
77	9122	60.000484678562	48
77	9274	61.000484684673	48
77	9426	62.000484690785	48
77	9578	63.000484696898	48
77	9730	64.000484703011	48
77	9882	65.000484709125	48
77	10034	66.000484715238	48
77	10186	67.000484721352	48
77	10338	68.000484727466	48
77	10490	69.000484733582	48
77	10642	70.000484739697	48
77	10794	71.000484745813	48
77	10946	72.000484751929	48
77	11098	73.000484758045	48
77	11250	74.000484764162	48
77	11402	75.000484770279	48
77	11554	76.000484776396	48
77	11706	77.000484782514	48
77	11858	78.000484788631	48
77	12010	79.00048479475	48
77	12162	80.000484800868	48
77	12314	81.000484806987	48
77	12466	82.000484813106	48
77	12618	83.000484819225	48
77	12770	84.000484825345	48
77	12922	85.000484831464	48
77	13074	86.000484837584	48
77	13226	87.000484843705	48
77	13378	88.000484849825	48
77	13530	89.000484855946	48
77	13682	90.000484862066	48
77	13834	91.000484868188	48
77	13986	92.000484874309	48
77	14138	93.000484880431	48
77	14290	94.000484886553	48
77	14442	95.000484892674	48
77	14594	96.000484898797	48
77	14746	97.000484904919	48
77	14898	98.000484911042	48
77	15050	99.000484917165	48
77	15202	100.000484923287	48
77	15354	101.000484929411	48
77	15506	102.000484935534	48
77	15658	103.000484941658	48
77	15810	104.00048494465	48
77	15962	105.000484948734	48
77	16114	106.000484951707	48
77	16266	107.000484954704	48
77	16418	108.000484957727	48
77	16570	109.000484960773	48
77	16722	110.000484963845	48
77	16874	111.00048496694	48
77	17026	112.000484970059	48
77	17178	113.000484973203	48
77	17330	114.000484976369	48
77	17482	115.00048497956	48
77	17634	116.000484982772	48
77	17786	117.000484986008	48
77	17938	118.000484989267	48
77	18090	119.000484992547	48
77	18242	120.000484995851	48
77	18394	121.000484999175	48
77	18546	122.000485002522	48
77	18698	123.00048500589	48
77	18850	124.000485009279	48
77	19002	125.00048501269	48
77	19154	126.000485016121	48
77	19306	127.000485019574	48
77	19458	128.000485023046	48
77	19610	129.000485026539	48
77	19762	130.000485030052	48
77	19914	131.000485033584	48
77	20066	132.000485037137	48
77	20218	133.000485040708	48
77	20370	134.0004850443	48
77	20522	135.000485047909	48
77	20674	136.000485051539	48
77	20826	137.000485055187	48
77	20978	138.000485058853	48
77	21130	139.000485062537	48
77	21282	140.000485066239	48
77	21434	141.00048506996	48
77	21586	142.000485073698	48
77	21738	143.000485077454	48
77	21890	144.000485081228	48
77	22042	145.000485085017	48
77	22194	146.000485088825	48
77	22346	147.000485092649	48
77	22498	148.00048509649	48
77	22650	149.000485100348	48
77	22802	150.000485104221	48
77	22954	151.000485108111	48
77	23106	152.000485112016	48
77	23258	153.000485115938	48
77	23410	154.000485119874	48
77	23562	155.000485123828	48
77	23714	156.000485127796	48
77	23866	157.000485131779	48
77	24018	158.000485135777	48
77	24170	159.00048513979	48
77	24322	160.000485143818	48
77	24474	161.00048514786	48
77	24626	162.000485151916	48
77	24778	163.000485155988	48
77	24930	164.000485160072	48
77	25082	165.000485164171	48
77	25234	166.000485168283	48
77	25386	167.00048517241	48
77	25538	168.00048517655	48
77	25690	169.000485180703	48
77	25842	170.00048518487	48
77	25994	171.000485189049	48
77	26146	172.000485193241	48
77	26298	173.000485197446	48
77	26450	174.000485201664	48
77	26602	175.000485205895	48
77	26754	176.000485210138	48
77	26906	177.000485214393	48
77	27058	178.00048521866	48
77	27210	179.00048522294	48
77	27362	180.000485227231	48
77	27514	181.000485231534	48
77	27666	182.000485235849	48
77	27818	183.000485240175	48
77	27970	184.000485244513	48
77	28122	185.000485248861	48
77	28274	186.000485253222	48
77	28426	187.000485257594	48
77	28578	188.000485261975	48
77	28730	189.000485266369	48
77	28882	190.000485270772	48
77	29034	191.000485275187	48
77	29186	192.000485279612	48
77	29338	193.000485284047	48
77	29490	194.000485288493	48
77	29642	195.000485292948	48
77	29794	196.000485297414	48
77	29946	197.000485301889	48
77	30098	198.000485306376	48
77	30250	199.000485310872	48
77	30402	200.000485315376	48
77	30554	201.000485319891	48
77	30706	202.000485324415	48
77	30858	203.000485328949	48
77	31010	204.000485333491	48
77	31162	205.000485338044	48
77	31314	206.000485342606	48
77	31466	207.000485347175	48
77	31618	208.000485351755	48
77	31770	209.000485356342	48
77	31922	210.00048536094	48
77	32074	211.000485365545	48
77	32227	212.000485370159	48
77	32380	213.000485374782	48
77	32533	214.000485379412	48
77	32686	215.000485384051	48
77	32839	216.000485388698	48
77	32992	217.000485393354	48
77	33145	218.000485398018	48
77	33298	219.000485402689	48
77	33451	220.000485407369	48
77	33604	221.000485412056	48
77	33757	222.000485416751	48
77	33910	223.000485421454	48
77	34063	224.000485426164	48
77	34216	225.000485430883	48
77	34369	226.000485435607	48
77	34522	227.00048544034	48
77	34675	228.00048544508	48
77	34828	229.000485449827	48
77	34981	230.000485454582	48
77	35134	231.000485459343	48
77	35287	232.000485464112	48
77	35440	233.000485468887	48
77	35593	234.00048547367	48
77	35746	235.000485478459	48
77	35899	236.000485483255	48
77	36052	237.000485488058	48
77	36205	238.000485492866	48
77	36358	239.000485497683	48
77	36511	240.000485502504	48
77	36664	241.000485507333	48
77	36817	242.000485512169	48
77	36970	243.00048551701	48
77	37123	244.000485521858	48
77	37276	245.000485526711	48
77	37429	246.000485531572	48
77	37582	247.000485536437	48
77	37735	248.00048554131	48
77	37888	249.000485546188	48
77	38041	250.000485551072	48
77	38196	251.000485555962	48
77	38349	252.000485560857	48
77	38502	253.000485565759	48
77	38655	254.000485570666	48
77	38808	255.000485575578	48
77	38961	256.000485580497	48
77	39114	257.00048558542	48
77	39267	258.00048559035	48
77	39420	259.000485595284	48
77	39573	260.000485600225	48
77	39726	261.000485605171	48
77	39879	262.000485610121	48
77	40032	263.000485615077	48
77	40185	264.000485620038	48
77	40338	265.000485625005	48
77	40491	266.000485629976	48
77	40644	267.000485634952	48
77	40797	268.000485639934	48
77	40950	269.00048564492	48
77	41103	270.000485649912	48
77	41256	271.000485654907	48
77	41409	272.000485659909	48
77	41562	273.000485664915	48
77	41715	274.000485669925	48
77	41868	275.00048567494	48
77	42021	276.00048567996	48
77	42174	277.000485684984	48
77	42327	278.000485690013	48
77	42480	279.000485695047	48
77	42633	280.000485700085	48
77	42786	281.000485705127	48
77	42937	282.000485705361	48
77	43090	283.000485703809	48
77	43243	284.000485702262	48
77	43396	285.000485700717	48
77	43549	286.000485699175	48
77	43702	287.000485697636	48
77	43855	288.0004856961	48
77	44008	289.000485694567	48
77	44161	290.000485693037	48
77	44314	291.00048569151	48
77	44467	292.000485689987	48
77	44620	293.000485688466	48
77	44773	294.000485686949	48
77	44926	295.000485685433	48
77	45079	296.000485683922	48
77	45232	297.000485682414	48
77	45385	298.000485680908	48
77	45538	299.000485679406	48
78	156	1.000484319676	48
78	308	2.000484325729	48
78	460	3.000484331787	48
78	612	4.000484337847	48
78	764	5.000484343911	48
78	916	6.000484349978	48
78	1068	7.000484356049	48
78	1220	8.000484362122	48
78	1372	9.000484368197	48
78	1524	10.000484374276	48
78	1676	11.000484380357	48
78	1828	12.000484386441	48
78	1980	13.000484392527	48
78	2132	14.000484398614	48
78	2284	15.000484404704	48
78	2436	16.000484410795	48
78	2588	17.00048441689	48
78	2740	18.000484422984	48
78	2892	19.000484429082	48
78	3044	20.000484435181	48
78	3196	21.000484441281	48
78	3348	22.000484447384	48
78	3500	23.000484453487	48
78	3652	24.000484459592	48
78	3804	25.000484465699	48
78	3956	26.000484471806	48
78	4108	27.000484477915	48
78	4260	28.000484484024	48
78	4412	29.000484490136	48
78	4564	30.000484496248	48
78	4716	31.000484502361	48
78	4868	32.000484508476	48
78	5020	33.000484514591	48
78	5172	34.000484520708	48
78	5324	35.000484526824	48
78	5476	36.000484532943	48
78	5628	37.000484539061	48
78	5780	38.000484545182	48
78	5932	39.000484551303	48
78	6084	40.000484557424	48
78	6236	41.000484563546	48
78	6388	42.000484569669	48
78	6540	43.000484575793	48
78	6692	44.000484581918	48
78	6844	45.000484588042	48
78	6996	46.000484594168	48
78	7148	47.000484600294	48
78	7300	48.000484606421	48
78	7452	49.000484612548	48
78	7604	50.000484618677	48
78	7756	51.000484624806	48
78	7908	52.000484630934	48
78	8060	53.000484637065	48
78	8212	54.000484643194	48
78	8364	55.000484649325	48
78	8516	56.000484655457	48
78	8668	57.000484661588	48
78	8820	58.000484667721	48
78	8972	59.000484673853	48
78	9124	60.000484679986	48
78	9276	61.000484686119	48
78	9428	62.000484692253	48
78	9580	63.000484698388	48
78	9732	64.000484704522	48
78	9884	65.000484710657	48
78	10036	66.000484716792	48
78	10188	67.000484722928	48
78	10340	68.000484729063	48
78	10492	69.0004847352	48
78	10644	70.000484741337	48
78	10796	71.000484747474	48
78	10948	72.000484753612	48
78	11100	73.000484759749	48
78	11252	74.000484765887	48
78	11404	75.000484772026	48
78	11556	76.000484778164	48
78	11708	77.000484784303	48
78	11860	78.000484790442	48
78	12012	79.000484796582	48
78	12164	80.000484802721	48
78	12316	81.000484808861	48
78	12468	82.000484815002	48
78	12620	83.000484821141	48
78	12772	84.000484827282	48
78	12924	85.000484833423	48
78	13076	86.000484839564	48
78	13228	87.000484845706	48
78	13380	88.000484851847	48
78	13532	89.000484857989	48
78	13684	90.00048486413	48
78	13836	91.000484870273	48
78	13988	92.000484876415	48
78	14140	93.000484882558	48
78	14292	94.000484888701	48
78	14444	95.000484894843	48
78	14596	96.000484900987	48
78	14748	97.00048490713	48
78	14900	98.000484913274	48
78	15052	99.000484919418	48
78	15204	100.000484925561	48
78	15356	101.000484931705	48
78	15508	102.000484937849	48
78	15660	103.000484943994	48
78	15812	104.000484946994	48
78	15964	105.000484951077	48
78	16116	106.000484954049	48
78	16268	107.000484957044	48
78	16420	108.000484960065	48
78	16572	109.000484963109	48
78	16724	110.000484966178	48
78	16876	111.00048496927	48
78	17028	112.000484972387	48
78	17180	113.000484975527	48
78	17332	114.000484978689	48
78	17484	115.000484981875	48
78	17636	116.000484985083	48
78	17788	117.000484988314	48
78	17940	118.000484991567	48
78	18092	119.000484994842	48
78	18244	120.00048499814	48
78	18396	121.000485001458	48
78	18548	122.000485004798	48
78	18700	123.000485008159	48
78	18852	124.000485011542	48
78	19004	125.000485014946	48
78	19156	126.000485018369	48
78	19308	127.000485021813	48
78	19460	128.000485025277	48
78	19612	129.000485028762	48
78	19764	130.000485032267	48
78	19916	131.00048503579	48
78	20068	132.000485039333	48
78	20220	133.000485042895	48
78	20372	134.000485046477	48
78	20524	135.000485050076	48
78	20676	136.000485053695	48
78	20828	137.000485057333	48
78	20980	138.000485060988	48
78	21132	139.000485064662	48
78	21284	140.000485068352	48
78	21436	141.000485072062	48
78	21588	142.000485075788	48
78	21740	143.000485079532	48
78	21892	144.000485083293	48
78	22044	145.000485087071	48
78	22196	146.000485090866	48
78	22348	147.000485094677	48
78	22500	148.000485098505	48
78	22652	149.00048510235	48
78	22804	150.000485106209	48
78	22956	151.000485110086	48
78	23108	152.000485113977	48
78	23260	153.000485117885	48
78	23412	154.000485121808	48
78	23564	155.000485125746	48
78	23716	156.0004851297	48
78	23868	157.000485133668	48
78	24020	158.000485137652	48
78	24172	159.000485141649	48
78	24324	160.000485145662	48
78	24476	161.000485149689	48
78	24628	162.000485153729	48
78	24780	163.000485157785	48
78	24932	164.000485161853	48
78	25084	165.000485165937	48
78	25236	166.000485170032	48
78	25388	167.000485174143	48
78	25540	168.000485178266	48
78	25692	169.000485182402	48
78	25844	170.000485186552	48
78	25996	171.000485190714	48
78	26148	172.00048519489	48
78	26300	173.000485199077	48
78	26452	174.000485203278	48
78	26604	175.000485207491	48
78	26756	176.000485211716	48
78	26908	177.000485215954	48
78	27060	178.000485220202	48
78	27212	179.000485224464	48
78	27364	180.000485228738	48
78	27516	181.000485233022	48
78	27668	182.000485237318	48
78	27820	183.000485241625	48
78	27972	184.000485245945	48
78	28124	185.000485250274	48
78	28276	186.000485254616	48
78	28428	187.000485258969	48
78	28580	188.000485263331	48
78	28732	189.000485267705	48
78	28884	190.000485272089	48
78	29036	191.000485276484	48
78	29188	192.00048528089	48
78	29340	193.000485285305	48
78	29492	194.000485289731	48
78	29644	195.000485294167	48
78	29796	196.000485298613	48
78	29948	197.000485303068	48
78	30100	198.000485307534	48
78	30252	199.00048531201	48
78	30404	200.000485316494	48
78	30556	201.000485320988	48
78	30708	202.000485325492	48
78	30860	203.000485330005	48
78	31012	204.000485334527	48
78	31164	205.000485339058	48
78	31316	206.000485343599	48
78	31468	207.000485348148	48
78	31620	208.000485352706	48
78	31772	209.000485357272	48
78	31924	210.000485361848	48
78	32076	211.000485366433	48
78	32229	212.000485371025	48
78	32382	213.000485375626	48
78	32535	214.000485380235	48
78	32688	215.000485384853	48
78	32841	216.000485389478	48
78	32994	217.000485394112	48
78	33147	218.000485398754	48
78	33300	219.000485403403	48
78	33453	220.000485408061	48
78	33606	221.000485412726	48
78	33759	222.000485417399	48
78	33912	223.00048542208	48
78	34065	224.000485426768	48
78	34218	225.000485431464	48
78	34371	226.000485436166	48
78	34524	227.000485440877	48
78	34677	228.000485445594	48
78	34830	229.000485450319	48
78	34983	230.000485455051	48
78	35136	231.000485459789	48
78	35289	232.000485464536	48
78	35442	233.000485469288	48
78	35595	234.000485474048	48
78	35748	235.000485478814	48
78	35901	236.000485483587	48
78	36054	237.000485488367	48
78	36207	238.000485493153	48
78	36360	239.000485497946	48
78	36513	240.000485502744	48
78	36666	241.00048550755	48
78	36819	242.000485512363	48
78	36972	243.00048551718	48
78	37125	244.000485522005	48
78	37278	245.000485526835	48
78	37431	246.000485531672	48
78	37584	247.000485536514	48
78	37737	248.000485541363	48
78	37890	249.000485546218	48
78	38043	250.000485551078	48
78	38194	251.000485555945	48
78	38347	252.000485560816	48
78	38500	253.000485565694	48
78	38653	254.000485570578	48
78	38806	255.000485575466	48
78	38959	256.000485580361	48
78	39112	257.000485585261	48
78	39265	258.000485590167	48
78	39418	259.000485595077	48
78	39571	260.000485599993	48
78	39724	261.000485604915	48
78	39877	262.000485609841	48
78	40030	263.000485614774	48
78	40183	264.00048561971	48
78	40336	265.000485624653	48
78	40489	266.000485629601	48
78	40642	267.000485634552	48
78	40795	268.00048563951	48
78	40948	269.000485644471	48
78	41101	270.000485649439	48
78	41254	271.00048565441	48
78	41407	272.000485659387	48
78	41560	273.000485664369	48
78	41713	274.000485669355	48
78	41866	275.000485674346	48
78	42019	276.000485679341	48
78	42172	277.000485684341	48
78	42325	278.000485689345	48
78	42478	279.000485694354	48
78	42631	280.000485699368	48
78	42784	281.000485704386	48
78	42939	282.000485708212	48
78	43092	283.000485706653	48
78	43245	284.000485705098	48
78	43398	285.000485703545	48
78	43551	286.000485701995	48
78	43704	287.000485700448	48
78	43857	288.000485698904	48
78	44010	289.000485697363	48
78	44163	290.000485695824	48
78	44316	291.000485694289	48
78	44469	292.000485692756	48
78	44622	293.000485691226	48
78	44775	294.000485689699	48
78	44928	295.000485688175	48
78	45081	296.000485686654	48
78	45234	297.000485685136	48
78	45387	298.000485683621	48
78	45540	299.000485682109	48

