version 2
run Wireless01-0-20200219-09:02:37-3200
attr configname Wireless01
attr datetime 20200219-09:02:37
attr experiment Wireless01
attr inifile omnetpp.ini
attr iterationvars ""
attr iterationvarsf ""
attr measurement ""
attr network Single
attr processid 3200
attr repetition 0
attr replication #0
attr resultdir results
attr runnumber 0
attr seedset 0
param *.host*.networkLayer.arpType "\"GlobalARP\""
param *.host*.wlan[0].typename "\"WirelessNic\""
param *.host*.wlan[0].radioType "\"IdealRadio\""
param *.host*.wlan[0].macType "\"CsmaCaMac\""
param *.host*.wlan[0].mac.useAck false
param *.host*.wlan[0].mac.maxQueueSize 5000
param *.hostB*.wlan[0].radio.carrierFrequency 1.5GHz
param *.host*.wlan[0].radio.carrierFrequency .9GHz
param *.host*.udpApp[*].packetName "\"UDPData\""
param *.host*.numUdpApps 3
param *.host*.mobilityType "\"LinearMobility\""
param *.host*.mobility.speed 12mps
param *.host*.mobility.angle 270deg
param *.hostA.udpApp[*].typename "\"UDPBasicApp\""
param *.hostA.udpApp[*].destAddresses "\"hostB1\""
param *.hostA.udpApp[0].destPort 5554
param *.hostA.udpApp[1].destPort 5555
param *.hostA.udpApp[2].destPort 5556
param *.hostA.udpApp[*].sendInterval .1s
param *.hostA.udpApp[*].messageLength 1300B
param *.hostB*.udpApp[*].typename "\"UDPSink\""
param *.hostB*.udpApp[0].localPort 5
param *.hostB*.udpApp[1].localPort 55
param *.hostB*.udpApp[2].localPort 5556
param *.hostC.udpApp[*].typename "\"UDPBasicApp\""
param *.hostC.udpApp[*].destAddresses "\"hostB1\""
param *.hostC.udpApp[0].destPort 5554
param *.hostC.udpApp[1].destPort 5555
param *.hostC.udpApp[2].destPort 5556
param *.hostC.udpApp[*].messageLength 100B
param *.hostC.udpApp[*].sendInterval .1s
param *.hostD.udpApp[*].typename "\"UDPBasicApp\""
param *.hostD.udpApp[*].destAddresses "\"hostB1\""
param *.hostD.udpApp[0].destPort 5554
param *.hostD.udpApp[1].destPort 5555
param *.hostD.udpApp[2].destPort 5556
param *.hostD.udpApp[*].messageLength 100B
param *.hostD.udpApp[*].sendInterval .1s
param *.hostE.udpApp[*].typename "\"UDPBasicApp\""
param *.hostE.udpApp[*].destAddresses "\"hostB1\""
param *.hostE.udpApp[0].destPort 5554
param *.hostE.udpApp[1].destPort 5555
param *.hostE.udpApp[2].destPort 5556
param *.hostE.udpApp[*].messageLength 100B
param *.hostE.udpApp[*].sendInterval .1s
param *.hostF.udpApp[*].typename "\"UDPBasicApp\""
param *.hostF.udpApp[*].destAddresses "\"hostB1\""
param *.hostF.udpApp[0].destPort 5554
param *.hostF.udpApp[1].destPort 5555
param *.hostF.udpApp[2].destPort 5556
param *.hostF.udpApp[*].messageLength 100B
param *.hostF.udpApp[*].sendInterval .01s
param *.hostG.udpApp[*].typename "\"UDPBasicApp\""
param *.hostG.udpApp[*].destAddresses "\"hostB1\""
param *.hostG.udpApp[0].destPort 5554
param *.hostG.udpApp[1].destPort 5556
param *.hostG.udpApp[2].destPort 5556
param *.hostG.udpApp[*].messageLength 100B
param *.hostG.udpApp[*].sendInterval .01s
param *.hostH.udpApp[*].typename "\"UDPBasicApp\""
param *.hostH.udpApp[*].destAddresses "\"hostB1\""
param *.hostH.udpApp[0].destPort 5554
param *.hostH.udpApp[1].destPort 5556
param *.hostH.udpApp[2].destPort 5556
param *.hostH.udpApp[*].messageLength 100B
param *.hostH.udpApp[*].sendInterval .01s
param *.hostI.udpApp[*].typename "\"UDPBasicApp\""
param *.hostI.udpApp[*].destAddresses "\"hostB1\""
param *.hostI.udpApp[0].destPort 5554
param *.hostI.udpApp[1].destPort 5556
param *.hostI.udpApp[2].destPort 5556
param *.hostI.udpApp[*].messageLength 100B
param *.hostI.udpApp[*].sendInterval .01s
param *.hostQ.udpApp[*].typename "\"UDPBasicApp\""
param *.hostQ.udpApp[*].destAddresses "\"hostB1\""
param *.hostQ.udpApp[0].destPort 5554
param *.hostQ.udpApp[1].destPort 5555
param *.hostQ.udpApp[2].destPort 5556
param *.hostQ.udpApp[*].messageLength 100B
param *.hostQ.udpApp[*].sendInterval .01s
param *.host*.wlan[0].radio.transmitter.communicationRange 300m
param *.host*.wlan[0].radio.receiver.ignoreInterference true
param *.host*.**.bitrate 2Mbps

vector 0 Single.hostA.wlan[0].radio radioMode:vector ETV
attr interpolationmode sample-hold
attr source radioModeChanged
attr title "Radio mode, vector"
vector 1 Single.hostB1.wlan[0].radio radioMode:vector ETV
attr interpolationmode sample-hold
attr source radioModeChanged
attr title "Radio mode, vector"
vector 2 Single.hostC.wlan[0].radio radioMode:vector ETV
attr interpolationmode sample-hold
attr source radioModeChanged
attr title "Radio mode, vector"
vector 3 Single.hostD.wlan[0].radio radioMode:vector ETV
attr interpolationmode sample-hold
attr source radioModeChanged
attr title "Radio mode, vector"
vector 4 Single.hostE.wlan[0].radio radioMode:vector ETV
attr interpolationmode sample-hold
attr source radioModeChanged
attr title "Radio mode, vector"
vector 5 Single.hostF.wlan[0].radio radioMode:vector ETV
attr interpolationmode sample-hold
attr source radioModeChanged
attr title "Radio mode, vector"
vector 6 Single.hostG.wlan[0].radio radioMode:vector ETV
attr interpolationmode sample-hold
attr source radioModeChanged
attr title "Radio mode, vector"
vector 7 Single.hostH.wlan[0].radio radioMode:vector ETV
attr interpolationmode sample-hold
attr source radioModeChanged
attr title "Radio mode, vector"
vector 8 Single.hostI.wlan[0].radio radioMode:vector ETV
attr interpolationmode sample-hold
attr source radioModeChanged
attr title "Radio mode, vector"
vector 9 Single.hostQ.wlan[0].radio radioMode:vector ETV
attr interpolationmode sample-hold
attr source radioModeChanged
attr title "Radio mode, vector"
vector 10 Single.hostA.wlan[0].radio receptionState:vector ETV
attr interpolationmode sample-hold
attr source receptionStateChanged
attr title "Radio reception state, vector"
vector 11 Single.hostB1.wlan[0].radio receptionState:vector ETV
attr interpolationmode sample-hold
attr source receptionStateChanged
attr title "Radio reception state, vector"
vector 12 Single.hostC.wlan[0].radio receptionState:vector ETV
attr interpolationmode sample-hold
attr source receptionStateChanged
attr title "Radio reception state, vector"
vector 13 Single.hostD.wlan[0].radio receptionState:vector ETV
attr interpolationmode sample-hold
attr source receptionStateChanged
attr title "Radio reception state, vector"
vector 14 Single.hostE.wlan[0].radio receptionState:vector ETV
attr interpolationmode sample-hold
attr source receptionStateChanged
attr title "Radio reception state, vector"
vector 15 Single.hostF.wlan[0].radio receptionState:vector ETV
attr interpolationmode sample-hold
attr source receptionStateChanged
attr title "Radio reception state, vector"
vector 16 Single.hostG.wlan[0].radio receptionState:vector ETV
attr interpolationmode sample-hold
attr source receptionStateChanged
attr title "Radio reception state, vector"
vector 17 Single.hostH.wlan[0].radio receptionState:vector ETV
attr interpolationmode sample-hold
attr source receptionStateChanged
attr title "Radio reception state, vector"
vector 18 Single.hostI.wlan[0].radio receptionState:vector ETV
attr interpolationmode sample-hold
attr source receptionStateChanged
attr title "Radio reception state, vector"
vector 19 Single.hostQ.wlan[0].radio receptionState:vector ETV
attr interpolationmode sample-hold
attr source receptionStateChanged
attr title "Radio reception state, vector"
vector 20 Single.hostF.udpApp[0] sentPk:vector(packetBytes) ETV
attr interpolationmode none
attr source sentPk
attr title "packets sent, vector(packetBytes)"
vector 21 Single.hostF.udpApp[1] sentPk:vector(packetBytes) ETV
attr interpolationmode none
attr source sentPk
attr title "packets sent, vector(packetBytes)"
vector 22 Single.hostF.udpApp[2] sentPk:vector(packetBytes) ETV
attr interpolationmode none
attr source sentPk
attr title "packets sent, vector(packetBytes)"
vector 23 Single.hostG.udpApp[0] sentPk:vector(packetBytes) ETV
attr interpolationmode none
attr source sentPk
attr title "packets sent, vector(packetBytes)"
vector 24 Single.hostG.udpApp[1] sentPk:vector(packetBytes) ETV
attr interpolationmode none
attr source sentPk
attr title "packets sent, vector(packetBytes)"
vector 25 Single.hostG.udpApp[2] sentPk:vector(packetBytes) ETV
attr interpolationmode none
attr source sentPk
attr title "packets sent, vector(packetBytes)"
vector 26 Single.hostH.udpApp[0] sentPk:vector(packetBytes) ETV
attr interpolationmode none
attr source sentPk
attr title "packets sent, vector(packetBytes)"
vector 27 Single.hostH.udpApp[1] sentPk:vector(packetBytes) ETV
attr interpolationmode none
attr source sentPk
attr title "packets sent, vector(packetBytes)"
vector 28 Single.hostH.udpApp[2] sentPk:vector(packetBytes) ETV
attr interpolationmode none
attr source sentPk
attr title "packets sent, vector(packetBytes)"
vector 29 Single.hostI.udpApp[0] sentPk:vector(packetBytes) ETV
attr interpolationmode none
attr source sentPk
attr title "packets sent, vector(packetBytes)"
vector 30 Single.hostI.udpApp[1] sentPk:vector(packetBytes) ETV
attr interpolationmode none
attr source sentPk
attr title "packets sent, vector(packetBytes)"
vector 31 Single.hostI.udpApp[2] sentPk:vector(packetBytes) ETV
attr interpolationmode none
attr source sentPk
attr title "packets sent, vector(packetBytes)"
vector 32 Single.hostQ.udpApp[0] sentPk:vector(packetBytes) ETV
attr interpolationmode none
attr source sentPk
attr title "packets sent, vector(packetBytes)"
vector 33 Single.hostQ.udpApp[1] sentPk:vector(packetBytes) ETV
attr interpolationmode none
attr source sentPk
attr title "packets sent, vector(packetBytes)"
vector 34 Single.hostQ.udpApp[2] sentPk:vector(packetBytes) ETV
attr interpolationmode none
attr source sentPk
attr title "packets sent, vector(packetBytes)"
vector 35 Single.hostF.udp sentPk:vector(packetBytes) ETV
attr interpolationmode none
attr source sentPk
attr title "packets sent, vector(packetBytes)"
vector 36 Single.hostG.udp sentPk:vector(packetBytes) ETV
attr interpolationmode none
attr source sentPk
attr title "packets sent, vector(packetBytes)"
vector 37 Single.hostH.udp sentPk:vector(packetBytes) ETV
attr interpolationmode none
attr source sentPk
attr title "packets sent, vector(packetBytes)"
vector 38 Single.hostI.udp sentPk:vector(packetBytes) ETV
attr interpolationmode none
attr source sentPk
attr title "packets sent, vector(packetBytes)"
vector 39 Single.hostQ.udp sentPk:vector(packetBytes) ETV
attr interpolationmode none
attr source sentPk
attr title "packets sent, vector(packetBytes)"
vector 40 Single.hostQ.wlan[0].radio transmissionState:vector ETV
attr interpolationmode sample-hold
attr source transmissionStateChanged
attr title "Radio transmission state, vector"
vector 41 Single.hostI.wlan[0].radio transmissionState:vector ETV
attr interpolationmode sample-hold
attr source transmissionStateChanged
attr title "Radio transmission state, vector"
vector 42 Single.hostF.wlan[0].radio transmissionState:vector ETV
attr interpolationmode sample-hold
attr source transmissionStateChanged
attr title "Radio transmission state, vector"
vector 43 Single.hostG.wlan[0].radio transmissionState:vector ETV
attr interpolationmode sample-hold
attr source transmissionStateChanged
attr title "Radio transmission state, vector"
vector 44 Single.hostH.wlan[0].radio transmissionState:vector ETV
attr interpolationmode sample-hold
attr source transmissionStateChanged
attr title "Radio transmission state, vector"
vector 45 Single.hostA.udpApp[0] sentPk:vector(packetBytes) ETV
attr interpolationmode none
attr source sentPk
attr title "packets sent, vector(packetBytes)"
vector 46 Single.hostA.udpApp[1] sentPk:vector(packetBytes) ETV
attr interpolationmode none
attr source sentPk
attr title "packets sent, vector(packetBytes)"
vector 47 Single.hostA.udpApp[2] sentPk:vector(packetBytes) ETV
attr interpolationmode none
attr source sentPk
attr title "packets sent, vector(packetBytes)"
vector 48 Single.hostC.udpApp[0] sentPk:vector(packetBytes) ETV
attr interpolationmode none
attr source sentPk
attr title "packets sent, vector(packetBytes)"
vector 49 Single.hostC.udpApp[1] sentPk:vector(packetBytes) ETV
attr interpolationmode none
attr source sentPk
attr title "packets sent, vector(packetBytes)"
vector 50 Single.hostC.udpApp[2] sentPk:vector(packetBytes) ETV
attr interpolationmode none
attr source sentPk
attr title "packets sent, vector(packetBytes)"
vector 51 Single.hostD.udpApp[0] sentPk:vector(packetBytes) ETV
attr interpolationmode none
attr source sentPk
attr title "packets sent, vector(packetBytes)"
vector 52 Single.hostD.udpApp[1] sentPk:vector(packetBytes) ETV
attr interpolationmode none
attr source sentPk
attr title "packets sent, vector(packetBytes)"
vector 53 Single.hostD.udpApp[2] sentPk:vector(packetBytes) ETV
attr interpolationmode none
attr source sentPk
attr title "packets sent, vector(packetBytes)"
vector 54 Single.hostE.udpApp[0] sentPk:vector(packetBytes) ETV
attr interpolationmode none
attr source sentPk
attr title "packets sent, vector(packetBytes)"
vector 55 Single.hostE.udpApp[1] sentPk:vector(packetBytes) ETV
attr interpolationmode none
attr source sentPk
attr title "packets sent, vector(packetBytes)"
vector 56 Single.hostE.udpApp[2] sentPk:vector(packetBytes) ETV
attr interpolationmode none
attr source sentPk
attr title "packets sent, vector(packetBytes)"
vector 57 Single.hostA.udp sentPk:vector(packetBytes) ETV
attr interpolationmode none
attr source sentPk
attr title "packets sent, vector(packetBytes)"
vector 58 Single.hostC.udp sentPk:vector(packetBytes) ETV
attr interpolationmode none
attr source sentPk
attr title "packets sent, vector(packetBytes)"
vector 59 Single.hostD.udp sentPk:vector(packetBytes) ETV
attr interpolationmode none
attr source sentPk
attr title "packets sent, vector(packetBytes)"
vector 60 Single.hostE.udp sentPk:vector(packetBytes) ETV
attr interpolationmode none
attr source sentPk
attr title "packets sent, vector(packetBytes)"
vector 61 Single.hostA.wlan[0].radio transmissionState:vector ETV
attr interpolationmode sample-hold
attr source transmissionStateChanged
attr title "Radio transmission state, vector"
vector 62 Single.hostB1.udp rcvdPk:vector(packetBytes) ETV
attr interpolationmode none
attr source rcvdPk
attr title "packets received, vector(packetBytes)"
vector 63 Single.hostB1.udp droppedPkWrongPort:vector(count) ETV
attr interpolationmode none
attr title "packets dropped (wrong port), vector(count)"
vector 64 Single.hostB1.udp passedUpPk:vector(count) ETV
attr interpolationmode none
attr title "packets passed up, vector(count)"
vector 65 Single.hostB1.udpApp[2] rcvdPk:vector(packetBytes) ETV
attr interpolationmode none
attr source rcvdPk
attr title "packets received, vector(packetBytes)"
vector 66 Single.hostB1.udpApp[2] throughput:vector ETV
attr source throughput(rcvdPk)
attr title "throughput, vector"
attr unit bps
vector 67 Single.hostB1.udpApp[2] endToEndDelay:vector ETV
attr interpolationmode none
attr source messageAge(rcvdPk)
attr title "end-to-end delay, vector"
attr unit s
vector 68 Single.hostB1.udpApp[2] rcvdPkSeqNo:vector ETV
attr interpolationmode none
attr source appPkSeqNo(rcvdPk)
attr title "received packet sequence number, vector"
vector 69 Single.hostE.wlan[0].radio transmissionState:vector ETV
attr interpolationmode sample-hold
attr source transmissionStateChanged
attr title "Radio transmission state, vector"
vector 70 Single.hostC.wlan[0].radio transmissionState:vector ETV
attr interpolationmode sample-hold
attr source transmissionStateChanged
attr title "Radio transmission state, vector"
vector 71 Single.hostD.wlan[0].radio transmissionState:vector ETV
attr interpolationmode sample-hold
attr source transmissionStateChanged
attr title "Radio transmission state, vector"
vector 72 Single.hostB1.wlan[0].radio transmissionState:vector ETV
attr interpolationmode sample-hold
attr source transmissionStateChanged
attr title "Radio transmission state, vector"
0	0	0	0
0	0	0	2
0	3949	0.10014	3
0	4294	0.105484	2
0	4323	0.105564	3
0	4440	0.110908	2
0	4480	0.111128	3
0	4761	0.116472	2
0	8729	0.20006	3
0	9073	0.205404	2
0	9091	0.205424	3
0	9241	0.210768	2
0	9285	0.211128	3
0	9562	0.216472	2
0	13988	0.304999179517	3
0	14142	0.310343179517	2
0	14169	0.310403179517	3
0	14505	0.315747179517	2
0	14692	0.318560784397	3
0	15054	0.323904784397	2
1	0	0	0
1	0	0	2
1	5076	0.120958957693	3
1	5110	0.121214957693	2
1	5137	0.121354957693	3
1	5172	0.121610957693	2
1	5210	0.121930957693	3
1	5232	0.122186957693	2
1	5340	0.123412957392	3
1	5375	0.123668957392	2
1	5413	0.124148957392	3
1	5435	0.124404957392	2
1	5568	0.12651100635	3
1	5579	0.12676700635	2
1	5606	0.12726700635	3
1	5617	0.12752300635	2
1	5635	0.12792300635	3
1	5646	0.12817900635	2
1	9094	0.205424468876	3
1	9125	0.205680468876	2
1	9697	0.21938984482	3
1	9708	0.21964584482	2
1	10062	0.22270444345	3
1	10084	0.22296044345	2
1	10096	0.22312044345	3
1	10120	0.22337644345	2
1	10143	0.22351644345	3
1	10165	0.22377244345	2
1	10253	0.22506700635	3
1	10275	0.22532300635	2
1	10315	0.22576300635	3
1	10326	0.22601900635	2
1	13766	0.302777882014	3
1	13778	0.303033882014	2
1	13789	0.303053882014	3
1	13846	0.303309882014	2
1	14521	0.315807648393	3
1	14532	0.316063648393	2
1	14549	0.316203648393	3
1	14560	0.316459648393	2
1	14577	0.316639648393	3
1	14588	0.316895648393	2
1	14650	0.318144315521	3
1	14675	0.318400315521	2
1	15093	0.324265253273	3
1	15104	0.324521253273	2
1	15105	0.324521253273	3
1	15155	0.324777253273	2
2	0	0	0
2	0	0	2
2	4840	0.118061132385	3
2	4851	0.118605132385	2
2	4901	0.119250624129	3
2	4912	0.119794624129	2
2	5002	0.120174624129	3
2	5036	0.120718624129	2
2	9577	0.216732617851	3
2	9588	0.217276617851	2
2	9607	0.217536617851	3
2	9618	0.218080617851	2
2	9637	0.218220617851	3
2	9648	0.218764617851	2
2	13857	0.303330215578	3
2	13883	0.303874215578	2
2	14605	0.317035981957	3
2	14616	0.317579981957	2
2	14635	0.317599981957	3
2	14646	0.318143981957	2
3	0	0	0
3	0	0	2
3	4870	0.118665878257	3
3	4881	0.119209878257	2
3	5466	0.124581758934	3
3	5498	0.125125758934	2
3	5526	0.125366339222	3
3	5537	0.125910339222	2
3	9838	0.220591144135	3
3	9895	0.221135144135	2
3	9914	0.221155144135	3
3	9970	0.221699144135	2
3	10201	0.224282339222	3
3	10223	0.224826339222	2
3	13615	0.301368582699	3
3	13660	0.301912582699	2
3	13912	0.30399496145	3
3	13946	0.30453896145	2
3	15172	0.325237920401	3
3	15184	0.325781920401	2
4	0	0	0
4	0	0	2
4	4778	0.116692622032	3
4	4789	0.117236622032	2
4	4809	0.117316622032	3
4	4820	0.117860622032	2
4	5267	0.122468240776	3
4	5300	0.123012240776	2
4	9666	0.218825128204	3
4	9677	0.219369128204	2
4	9725	0.219966561436	3
4	9818	0.220510561436	2
4	9989	0.221759726834	3
4	10033	0.222303726834	2
4	13485	0.30018	3
4	13532	0.300724	2
4	13550	0.300784	3
4	13597	0.301328	2
4	13680	0.302013165398	3
4	13715	0.302557165398	2
5	0	0	0
5	0	0	2
5	137	0.01058	3
5	194	0.011124	2
5	218	0.011304	3
5	262	0.011848	2
5	435	0.015285482595	3
5	446	0.015829482595	2
5	542	0.02052	3
5	601	0.021064	2
5	833	0.024867379389	3
5	844	0.025411379389	2
5	858	0.025631379389	3
5	870	0.026175379389	2
5	990	0.030944573942	3
5	1026	0.031488573942	2
5	1040	0.031548573942	3
5	1085	0.032092573942	2
5	1121	0.032192573942	3
5	1158	0.032736573942	2
5	1395	0.04062	3
5	1443	0.041164	2
5	1553	0.042653509091	3
5	1589	0.043197509091	2
5	1603	0.043217509091	3
5	1636	0.043761509091	2
5	1879	0.051404573942	3
5	1914	0.051948573942	2
5	1938	0.052108573942	3
5	1984	0.052652573942	2
5	2117	0.054846279264	3
5	2129	0.055390279264	2
5	2274	0.061404573942	3
5	2309	0.061948573942	2
5	2493	0.064683592124	3
5	2528	0.065227592124	2
5	2540	0.065587592124	3
5	2551	0.066131592124	2
5	2625	0.07006	3
5	2658	0.070604	2
5	2730	0.071309482595	3
5	2766	0.071853482595	2
5	2767	0.071853482595	3
5	2812	0.072397482595	2
5	3044	0.08006	3
5	3077	0.080604	2
5	3137	0.081064685926	3
5	3184	0.081608685926	2
5	3195	0.081668685926	3
5	3230	0.082212685926	2
5	3471	0.0906	3
5	3529	0.091144	2
5	3649	0.092573482595	3
5	3685	0.093117482595	2
5	3770	0.094466854447	3
5	3781	0.095010854447	2
5	4031	0.101244685926	3
5	4077	0.101788685926	2
5	4110	0.102348685926	3
5	4145	0.102892685926	2
5	4146	0.102892685926	3
5	4189	0.103436685926	2
5	4548	0.112332685926	3
5	4592	0.112876685926	2
5	4635	0.113396685926	3
5	4657	0.113940685926	2
5	4704	0.11474583381	3
5	4724	0.11528983381	2
5	5053	0.120784573942	3
5	5124	0.121328573942	2
5	5160	0.121488573942	3
5	5221	0.122032573942	2
5	5464	0.124581482595	3
5	5497	0.125125482595	2
5	5737	0.13034	3
5	5772	0.130884	2
5	5796	0.130964	3
5	5832	0.131508	2
5	5868	0.131828	3
5	5913	0.132372	2
5	6151	0.14006	3
5	6185	0.140604	2
5	6199	0.140804	3
5	6255	0.141348	2
5	6333	0.142093482595	3
5	6378	0.142637482595	2
5	6652	0.151408573942	3
5	6686	0.151952573942	2
5	6837	0.154065945794	3
5	6861	0.154609945794	2
5	6875	0.154749945794	3
5	6896	0.155293945794	2
5	7110	0.161788573942	3
5	7147	0.162332573942	2
5	7255	0.164021945794	3
5	7301	0.164565945794	2
5	7314	0.164645945794	3
5	7338	0.165189945794	2
5	7435	0.17044	3
5	7472	0.170984	2
5	7484	0.171104	3
5	7519	0.171648	2
5	7661	0.173357509091	3
5	7695	0.173901509091	2
5	7928	0.181808685926	3
5	7973	0.182352685926	2
5	7985	0.182392685926	3
5	8030	0.182936685926	2
5	8078	0.183516685926	3
5	8116	0.184060685926	2
5	8257	0.19012	3
5	8293	0.190664	2
5	8559	0.195045482595	3
5	8572	0.195589482595	2
5	8586	0.196089482595	3
5	8597	0.196633482595	2
5	8799	0.201124685926	3
5	8845	0.201668685926	2
5	8890	0.202288685926	3
5	8935	0.202832685926	2
5	8946	0.202912685926	3
5	8979	0.203456685926	2
5	9196	0.21004	3
5	9229	0.210584	2
5	9254	0.210864	3
5	9307	0.211408	2
5	9308	0.211408	3
5	9353	0.211952	2
5	10127	0.223377482595	3
5	10177	0.223921482595	2
5	10264	0.225117870041	3
5	10292	0.225661870041	2
5	10293	0.225661870041	3
5	10338	0.226205870041	2
5	10560	0.231268573942	3
5	10609	0.231812573942	2
5	10783	0.234985482595	3
5	10795	0.235529482595	2
5	10810	0.235909482595	3
5	10822	0.236453482595	2
5	10948	0.241044685926	3
5	10983	0.241588685926	2
5	10998	0.241768685926	3
5	11043	0.242312685926	2
5	11069	0.242392685926	3
5	11103	0.242936685926	2
5	11341	0.25014	3
5	11376	0.250684	2
5	11387	0.250764	3
5	11422	0.251308	2
5	11437	0.251548	3
5	11482	0.252092	2
5	11760	0.26048	3
5	11798	0.261024	2
5	11809	0.261204	3
5	11844	0.261748	2
5	11902	0.262048	3
5	11938	0.262592	2
5	12167	0.27014	3
5	12200	0.270684	2
5	12213	0.270744	3
5	12260	0.271288	2
5	12333	0.272213482595	3
5	12370	0.272757482595	2
5	12661	0.281548685926	3
5	12708	0.282092685926	2
5	12725	0.282472685926	3
5	12757	0.283016685926	2
5	12783	0.283216685926	3
5	12818	0.283760685926	2
5	13033	0.290764573942	3
5	13066	0.291308573942	2
5	13114	0.291628573942	3
5	13161	0.292172573942	2
5	13243	0.293557482595	3
5	13269	0.294101482595	2
5	13735	0.302598121466	3
5	13801	0.303142121466	2
5	13965	0.304599818077	3
5	14000	0.305143818077	2
5	14024	0.305663818077	3
5	14048	0.306207818077	2
5	14158	0.31038	3
5	14206	0.310924	2
5	14241	0.311464	3
5	14288	0.312008	2
5	14312	0.312388	3
5	14347	0.312932	2
5	14846	0.321268685926	3
5	14868	0.321812685926	2
5	14879	0.321832685926	3
5	14912	0.322376685926	2
5	14934	0.322398057778	3
5	14977	0.322942057778	2
5	15429	0.332492685926	3
6	0	0	0
6	0	0	2
6	286	0.012132796669	3
6	319	0.012676796669	2
6	332	0.013136796669	3
6	365	0.013680796669	2
6	400	0.014280796669	3
6	423	0.014824796669	2
6	697	0.022132796669	3
6	722	0.022676796669	2
6	736	0.022736796669	3
6	759	0.023280796669	2
6	783	0.023520796669	3
6	807	0.024064796669	2
6	1192	0.033292796669	3
6	1227	0.033836796669	2
6	1239	0.033876796669	3
6	1263	0.034420796669	2
6	1276	0.034740796669	3
6	1287	0.035284796669	2
6	1465	0.041228796669	3
6	1492	0.041772796669	2
6	1505	0.041832796669	3
6	1529	0.042376796669	2
6	1662	0.043962195017	3
6	1687	0.044506195017	2
6	1783	0.05016	3
6	1806	0.050704	2
6	2031	0.053457593338	3
6	2068	0.054001593338	2
6	2080	0.054061593338	3
6	2105	0.054605593338	2
6	2312	0.061949259868	3
6	2345	0.062493259868	2
6	2358	0.062573259868	3
6	2383	0.063117259868	2
6	2407	0.063237259868	3
6	2432	0.063781259868	2
6	2682	0.070664796669	3
6	2717	0.071208796669	2
6	2873	0.073178390007	3
6	2897	0.073722390007	2
6	2921	0.073942390007	3
6	2945	0.074486390007	2
6	3045	0.08006	3
6	3078	0.080604	2
6	3291	0.083097593338	3
6	3326	0.083641593338	2
6	3339	0.083781593338	3
6	3362	0.084325593338	2
6	3587	0.091628796669	3
6	3612	0.092172796669	2
6	3696	0.093178168521	3
6	3720	0.093722168521	2
6	3733	0.093862168521	3
6	3757	0.094406168521	2
6	3971	0.10034	3
6	3995	0.100884	2
6	4224	0.104197593338	3
6	4250	0.104741593338	2
6	4270	0.104941593338	3
6	4312	0.105485593338	2
6	4395	0.11034	3
6	4417	0.110884	2
6	4418	0.110884	3
6	4491	0.111428	2
6	4514	0.111708	3
6	4536	0.112252	2
6	5329	0.123092796669	3
6	5362	0.123636796669	2
6	5391	0.123956796669	3
6	5451	0.124500796669	2
6	5556	0.126351301487	3
6	5592	0.126895301487	2
6	5926	0.132392685926	3
6	5950	0.132936685926	2
6	5975	0.133016685926	3
6	5999	0.133560685926	2
6	6024	0.133880685926	3
6	6048	0.134424685926	2
6	6302	0.141548796669	3
6	6328	0.142092796669	2
6	6423	0.143298390007	3
6	6459	0.143842390007	2
6	6471	0.143902390007	3
6	6496	0.144446390007	2
6	6699	0.152013259868	3
6	6734	0.152557259868	2
6	6749	0.152697259868	3
6	6785	0.153241259868	2
6	6798	0.153341259868	3
6	6824	0.153885259868	2
6	7026	0.160564796669	3
6	7062	0.161108796669	2
6	7158	0.162393259868	3
6	7181	0.162937259868	2
6	7194	0.162977259868	3
6	7229	0.163521259868	2
6	7553	0.171928796669	3
6	7578	0.172472796669	2
6	7579	0.172472796669	3
6	7625	0.173016796669	2
6	7720	0.174322195017	3
6	7744	0.174866195017	2
6	7841	0.18044	3
6	7866	0.180984	2
6	7890	0.181264	3
6	7926	0.181808	2
6	8150	0.185001593338	3
6	8174	0.185545593338	2
6	8421	0.192372796669	3
6	8445	0.192916796669	2
6	8459	0.192976796669	3
6	8482	0.193520796669	2
6	8520	0.193900796669	3
6	8545	0.194444796669	2
6	8751	0.2005	3
6	8788	0.201044	2
6	8992	0.203797371852	3
6	9014	0.204341371852	2
6	9039	0.204801371852	3
6	9061	0.205345371852	2
6	9422	0.212792796669	3
6	9444	0.213336796669	2
6	9457	0.213396796669	3
6	9490	0.213940796669	2
6	9503	0.214180796669	3
6	9536	0.214724796669	2
6	10022	0.222272796669	3
6	10073	0.222816796669	2
6	10352	0.226406555967	3
6	10364	0.226950555967	2
6	10377	0.227010555967	3
6	10389	0.227554555967	2
6	10644	0.232272796669	3
6	10680	0.232816796669	2
6	10707	0.233176796669	3
6	10731	0.233720796669	2
6	10745	0.234080796669	3
6	10768	0.234624796669	2
6	10898	0.24024	3
6	10922	0.240784	2
6	11150	0.243697593338	3
6	11175	0.244241593338	2
6	11211	0.244861593338	3
6	11233	0.245405593338	2
6	11531	0.252812796669	3
6	11555	0.253356796669	2
6	11579	0.253496796669	3
6	11603	0.254040796669	2
6	11628	0.254360796669	3
6	11640	0.254904796669	2
6	11950	0.262672685926	3
6	11973	0.263216685926	2
6	11986	0.263356685926	3
6	12010	0.263900685926	2
6	12036	0.264360685926	3
6	12059	0.264904685926	2
6	12284	0.271568796669	3
6	12320	0.272112796669	2
6	12403	0.273198390007	3
6	12439	0.273742390007	2
6	12464	0.274082390007	3
6	12487	0.274626390007	2
6	12584	0.2802	3
6	12610	0.280744	2
6	12623	0.280844	3
6	12647	0.281388	2
6	12854	0.284421593338	3
6	12879	0.284965593338	2
6	13196	0.292992796669	3
6	13231	0.293536796669	2
6	13293	0.294562168521	3
6	13318	0.295106168521	2
6	13331	0.295626168521	3
6	13342	0.296170168521	2
6	13474	0.30008	3
6	13507	0.300624	2
6	13520	0.300664	3
6	13583	0.301208	2
6	13835	0.303257593338	3
6	13870	0.303801593338	2
6	14372	0.313512685926	3
6	14397	0.314056685926	2
6	14420	0.314276685926	3
6	14446	0.314820685926	2
6	14470	0.315180685926	3
6	14493	0.315724685926	2
6	14763	0.32002	3
6	14786	0.320564	2
6	14798	0.320704	3
6	14834	0.321248	2
6	14882	0.321833371852	3
6	14916	0.322377371852	2
6	15280	0.33032	3
6	15314	0.330864	2
6	15315	0.330864	3
6	15360	0.331408	2
6	15361	0.331408	3
6	15395	0.331952	2
7	0	0	0
7	0	0	2
7	308	0.012672935149	3
7	343	0.013216935149	2
7	354	0.013276935149	3
7	378	0.013820935149	2
7	389	0.014040935149	3
7	411	0.014584935149	2
7	650	0.021508935149	3
7	674	0.022052935149	2
7	747	0.022878805447	3
7	772	0.023422805447	2
7	796	0.023922805447	3
7	820	0.024466805447	2
7	955	0.0303	3
7	978	0.030844	2
7	1180	0.033077147884	3
7	1204	0.033621147884	2
7	1216	0.033701147884	3
7	1251	0.034245147884	2
7	1516	0.041928935149	3
7	1542	0.042472935149	2
7	1651	0.043842083033	3
7	1674	0.044386083033	2
7	1699	0.044826083033	3
7	1711	0.045370083033	2
7	1794	0.05026	3
7	1830	0.050804	2
7	2019	0.052997870298	3
7	2044	0.053541870298	2
7	2057	0.053941870298	3
7	2092	0.054485870298	2
7	2214	0.06042	3
7	2238	0.060964	2
7	2333	0.062109147884	3
7	2369	0.062653147884	2
7	2445	0.063839018182	3
7	2468	0.064383018182	2
7	2850	0.072892935149	3
7	2884	0.073436935149	2
7	2910	0.073876935149	3
7	2933	0.074420935149	2
7	2957	0.074520935149	3
7	2969	0.075064935149	2
7	3279	0.082872935149	3
7	3302	0.083416935149	2
7	3315	0.083556935149	3
7	3350	0.084100935149	2
7	3376	0.084680935149	3
7	3388	0.085224935149	2
7	3472	0.0906	3
7	3530	0.091144	2
7	3708	0.093618056537	3
7	3745	0.094162056537	2
7	3796	0.095371428389	3
7	3807	0.095915428389	2
7	3960	0.10018	3
7	3982	0.100724	2
7	4212	0.103877259868	3
7	4236	0.104421259868	2
7	4248	0.104741259868	3
7	4282	0.105285259868	2
7	4462	0.111004935149	3
7	4503	0.111548935149	2
7	4679	0.114201259868	3
7	4701	0.114745259868	2
7	4736	0.115450407752	3
7	4749	0.115994407752	2
7	4991	0.12006	3
7	5024	0.120604	2
7	5278	0.122528541809	3
7	5319	0.123072541809	2
7	5351	0.123572541809	3
7	5402	0.124116541809	2
7	5963	0.133012935149	3
7	5987	0.133556935149	2
7	6011	0.133636935149	3
7	6036	0.134180935149	2
7	6060	0.134500935149	3
7	6073	0.135044935149	2
7	6329	0.142092935149	3
7	6377	0.142636935149	2
7	6412	0.143118056537	3
7	6436	0.143662056537	2
7	6448	0.143742056537	3
7	6483	0.144286056537	2
7	6580	0.1501	3
7	6603	0.150644	2
7	6615	0.150804	3
7	6639	0.151348	2
7	6910	0.155394519736	3
7	6921	0.155938519736	2
7	7004	0.16028	3
7	7039	0.160824	2
7	7051	0.161064	3
7	7086	0.161608	2
7	7170	0.162673147884	3
7	7206	0.163217147884	2
7	7564	0.171948935149	3
7	7602	0.172492935149	2
7	7613	0.172692935149	3
7	7650	0.173236935149	2
7	7733	0.174642805447	3
7	7758	0.175186805447	2
7	7830	0.18008	3
7	7853	0.180624	2
7	7867	0.180984	3
7	7901	0.181528	2
7	8138	0.184541259868	3
7	8161	0.185085259868	2
7	8315	0.190764573942	3
7	8338	0.191308573942	2
7	8363	0.191408573942	3
7	8386	0.191952573942	2
7	8409	0.192212573942	3
7	8433	0.192756573942	2
7	8730	0.20006	3
7	8763	0.200604	2
7	9003	0.203977259868	3
7	9028	0.204521259868	2
7	9050	0.205001259868	3
7	9113	0.205545259868	2
7	9433	0.212852935149	3
7	9459	0.213396935149	2
7	9479	0.213716935149	3
7	9514	0.214260935149	2
7	9525	0.214360935149	3
7	9549	0.214904935149	2
7	9807	0.22042	3
7	9872	0.220964	2
7	9959	0.221689870298	3
7	10011	0.222233870298	2
7	10212	0.224313296099	3
7	10242	0.224857296099	2
7	10477	0.23004	3
7	10500	0.230584	2
7	10512	0.230604	3
7	10537	0.231148	2
7	10720	0.233641870298	3
7	10756	0.234185870298	2
7	11128	0.243457259868	3
7	11162	0.244001259868	2
7	11187	0.244301259868	3
7	11199	0.244845259868	2
7	11222	0.244945259868	3
7	11246	0.245489259868	2
7	11542	0.252852935149	3
7	11568	0.253396935149	2
7	11591	0.253796935149	3
7	11617	0.254340935149	2
7	11653	0.254920935149	3
7	11665	0.255464935149	2
7	11962	0.262912573942	3
7	11999	0.263456573942	2
7	12024	0.264056573942	3
7	12047	0.264600573942	2
7	12072	0.265140573942	3
7	12084	0.265684573942	2
7	12382	0.272978056537	3
7	12416	0.273522056537	2
7	12417	0.273522056537	3
7	12452	0.274066056537	2
7	12475	0.274166056537	3
7	12500	0.274710056537	2
7	12843	0.284361259868	3
7	12867	0.284905259868	2
7	12891	0.285005259868	3
7	12902	0.285549259868	2
7	12914	0.286149259868	3
7	12925	0.286693259868	2
7	12997	0.29012	3
7	13020	0.290664	2
7	13172	0.292473147884	3
7	13207	0.293017147884	2
7	13282	0.294242056537	3
7	13304	0.294786056537	2
7	13496	0.30034	3
7	13561	0.300884	2
7	13571	0.300964	3
7	13627	0.301508	2
7	13637	0.301708	3
7	13693	0.302252	2
7	14361	0.313432573942	3
7	14385	0.313976573942	2
7	14409	0.314096573942	3
7	14433	0.314640573942	2
7	14458	0.314920573942	3
7	14481	0.315464573942	2
7	14774	0.32024	3
7	14810	0.320784	2
7	15009	0.323277870298	3
7	15031	0.323821870298	2
7	15082	0.324081870298	3
7	15143	0.324625870298	2
7	15269	0.33012	3
7	15291	0.330664	2
7	15303	0.330724	3
7	15337	0.331268	2
7	15349	0.331288	3
7	15383	0.331832	2
8	0	0	0
8	0	0	2
8	126	0.01028	3
8	172	0.010824	2
8	183	0.010844	3
8	229	0.011388	2
8	230	0.011388	3
8	275	0.011932	2
8	520	0.02002	3
8	553	0.020564	2
8	578	0.020704	3
8	614	0.021248	2
8	638	0.021308	3
8	662	0.021852	2
8	944	0.03026	3
8	967	0.030804	2
8	1013	0.031224	3
8	1073	0.031768	2
8	1132	0.032388	3
8	1170	0.032932	2
8	1362	0.04004	3
8	1384	0.040584	2
8	1406	0.040624	3
8	1455	0.041168	2
8	1566	0.042917593338	3
8	1614	0.043461593338	2
8	1819	0.050744796669	3
8	1855	0.051288796669	2
8	1890	0.051508796669	3
8	1928	0.052052796669	2
8	1972	0.052432796669	3
8	2009	0.052976796669	2
8	2203	0.06028	3
8	2227	0.060824	2
8	2250	0.061144	3
8	2285	0.061688	2
8	2457	0.064262056537	3
8	2504	0.064806056537	2
8	2626	0.07006	3
8	2659	0.070604	2
8	2741	0.071669593338	3
8	2802	0.072213593338	2
8	2826	0.072433593338	3
8	2861	0.072977593338	2
8	3103	0.080664796669	3
8	3148	0.081208796669	2
8	3173	0.081568796669	3
8	3219	0.082112796669	2
8	3244	0.082292796669	3
8	3268	0.082836796669	2
8	3460	0.09032	3
8	3507	0.090864	2
8	3518	0.091024	3
8	3575	0.091568	2
8	3637	0.092253593338	3
8	3673	0.092797593338	2
8	3999	0.100884796669	3
8	4042	0.101428796669	2
8	4087	0.101968796669	3
8	4121	0.102512796669	2
8	4167	0.103032796669	3
8	4201	0.103576796669	2
8	4581	0.112692796669	3
8	4614	0.113236796669	2
8	4624	0.113376796669	3
8	4646	0.113920796669	2
8	4668	0.114080796669	3
8	4690	0.114624796669	2
8	5013	0.12052	3
8	5088	0.121064	2
8	5099	0.121184	3
8	5188	0.121728	2
8	5244	0.122208	3
8	5289	0.122752	2
8	5726	0.13	3
8	5759	0.130544	2
8	5807	0.131024	3
8	5846	0.131568	2
8	5856	0.131628	3
8	5902	0.132172	2
8	6173	0.14036	3
8	6222	0.140904	2
8	6233	0.140924	3
8	6270	0.141468	2
8	6364	0.142233593338	3
8	6401	0.142777593338	2
8	6569	0.15002	3
8	6591	0.150564	2
8	6628	0.151144	3
8	6664	0.151688	2
8	6848	0.154266056537	3
8	6886	0.154810056537	2
8	6993	0.16	3
8	7015	0.160544	2
8	7075	0.161469593338	3
8	7122	0.162013593338	2
8	7243	0.163822056537	3
8	7279	0.164366056537	2
8	7424	0.1703	3
8	7461	0.170844	2
8	7506	0.171224	3
8	7543	0.171768	2
8	7638	0.173157593338	3
8	7684	0.173701593338	2
8	7949	0.181988796669	3
8	8009	0.182532796669	2
8	8019	0.182912796669	3
8	8068	0.183456796669	2
8	8104	0.183976796669	3
8	8128	0.184520796669	2
8	8258	0.19012	3
8	8294	0.190664	2
8	8326	0.190784	3
8	8350	0.191328	2
8	8361	0.191408	3
8	8385	0.191952	2
8	8834	0.201384796669	3
8	8867	0.201928796669	2
8	8879	0.201988796669	3
8	8912	0.202532796669	2
8	8923	0.202692796669	3
8	8968	0.203236796669	2
8	9218	0.21056	3
8	9275	0.211104	2
8	9296	0.211384	3
8	9343	0.211928	2
8	9377	0.212168	3
8	9399	0.212712	2
8	9796	0.22008	3
8	9849	0.220624	2
8	9861	0.220824	3
8	9925	0.221368	2
8	9926	0.221368	3
8	10000	0.221912	2
8	10466	0.23002	3
8	10489	0.230564	2
8	10524	0.230864	3
8	10572	0.231408	2
8	10583	0.231608	3
8	10632	0.232152	2
8	10960	0.241384796669	3
8	11010	0.241928796669	2
8	11057	0.242348796669	3
8	11092	0.242892796669	2
8	11117	0.243052796669	3
8	11139	0.243596796669	2
8	11330	0.2501	3
8	11365	0.250644	2
8	11411	0.251264	3
8	11459	0.251808	2
8	11496	0.252148	3
8	11520	0.252692	2
8	11738	0.26032	3
8	11774	0.260864	2
8	11820	0.261284	3
8	11859	0.261828	2
8	11880	0.261948	3
8	11914	0.262492	2
8	12156	0.27004	3
8	12189	0.270584	2
8	12226	0.270924	3
8	12274	0.271468	2
8	12357	0.272493593338	3
8	12393	0.273037593338	2
8	12697	0.281948796669	3
8	12746	0.282492796669	2
8	12771	0.283032796669	3
8	12795	0.283576796669	2
8	12806	0.283596796669	3
8	12832	0.284140796669	2
8	13008	0.29048	3
8	13055	0.291024	2
8	13079	0.291364	3
8	13125	0.291908	2
8	13136	0.292008	3
8	13185	0.292552	2
8	13648	0.301728796669	3
8	13704	0.302272796669	2
8	13755	0.302692796669	3
8	13825	0.303236796669	2
8	13901	0.303922390007	3
8	13935	0.304466390007	2
8	14131	0.31034	3
8	14194	0.310884	2
8	14230	0.311364	3
8	14276	0.311908	2
8	14301	0.312328	3
8	14336	0.312872	2
8	14966	0.322618168521	3
8	14999	0.323162168521	2
8	15020	0.323322168521	3
8	15043	0.323866168521	2
8	15071	0.324066168521	3
8	15132	0.324610168521	2
8	15418	0.332312796669	3
9	0	0	0
9	0	0	2
9	115	0.01014	3
9	148	0.010684	2
9	149	0.010684	3
9	205	0.011228	2
9	251	0.011728	3
9	297	0.012272	2
9	521	0.02002	3
9	554	0.020564	2
9	589	0.020744	3
9	625	0.021288	2
9	679	0.022053870298	3
9	709	0.022597870298	2
9	1001	0.031024935149	3
9	1051	0.031568935149	2
9	1052	0.031568935149	3
9	1099	0.032112935149	2
9	1100	0.032112935149	3
9	1144	0.032656935149	2
9	1373	0.0405	3
9	1419	0.041044	2
9	1432	0.041104	3
9	1478	0.041648	2
9	1578	0.042993870298	3
9	1624	0.043537870298	2
9	1841	0.050844935149	3
9	1866	0.051388935149	2
9	1902	0.051708935149	3
9	1949	0.052252935149	2
9	1961	0.052412935149	3
9	1998	0.052956935149	2
9	2262	0.061384935149	3
9	2296	0.061928935149	2
9	2396	0.063154083033	3
9	2419	0.063698083033	2
9	2481	0.064563953331	3
9	2515	0.065107953331	2
9	2647	0.0702	3
9	2693	0.070744	2
9	2706	0.071184	3
9	2753	0.071728	2
9	2790	0.071948	3
9	2837	0.072492	2
9	3066	0.08018	3
9	3114	0.080724	2
9	3126	0.081004	3
9	3160	0.081548	2
9	3207	0.081788	3
9	3255	0.082332	2
9	3473	0.0906	3
9	3531	0.091144	2
9	3562	0.091164935149	3
9	3598	0.091708935149	2
9	3625	0.092188935149	3
9	3660	0.092732935149	2
9	4017	0.100904935149	3
9	4053	0.101448935149	2
9	4065	0.101628935149	3
9	4098	0.102172935149	2
9	4122	0.102512935149	3
9	4178	0.103056935149	2
9	4406	0.11046	3
9	4458	0.111004	2
9	4525	0.111909870298	3
9	4559	0.112453870298	2
9	4570	0.112513870298	3
9	4603	0.113057870298	2
9	5064	0.12083960666	3
9	5148	0.12138360666	2
9	5199	0.12186360666	3
9	5255	0.12240760666	2
9	5424	0.124377476958	3
9	5486	0.124921476958	2
9	5748	0.13038	3
9	5785	0.130924	2
9	5819	0.131324	3
9	5879	0.131868	2
9	5891	0.132068	3
9	5938	0.132612	2
9	6162	0.14034	3
9	6210	0.140884	2
9	6232	0.140924	3
9	6269	0.141468	2
9	6291	0.141528	3
9	6315	0.142072	2
9	6675	0.151768935149	3
9	6712	0.152312935149	2
9	6723	0.152432935149	3
9	6761	0.152976935149	2
9	6762	0.152976935149	3
9	6809	0.153520935149	2
9	7098	0.161688935149	3
9	7133	0.162232935149	2
9	7218	0.163478083033	3
9	7257	0.164022083033	2
9	7290	0.164482083033	3
9	7326	0.165026083033	2
9	7413	0.17004	3
9	7447	0.170584	2
9	7483	0.171104	3
9	7518	0.171648	2
9	7672	0.173497870298	3
9	7709	0.174041870298	2
9	7913	0.181548935149	3
9	7960	0.182092935149	2
9	7996	0.182412935149	3
9	8044	0.182956935149	2
9	8056	0.183156935149	3
9	8089	0.183700935149	2
9	8246	0.19004	3
9	8279	0.190584	2
9	8470	0.193097509091	3
9	8495	0.193641509091	2
9	8509	0.193801509091	3
9	8532	0.194345509091	2
9	8777	0.200704935149	3
9	8810	0.201248935149	2
9	8823	0.201348935149	3
9	8856	0.201892935149	2
9	8901	0.202492935149	3
9	8958	0.203036935149	2
9	9207	0.2105	3
9	9265	0.211044	2
9	9332	0.211444	3
9	9367	0.211988	2
9	9378	0.212168	3
9	9400	0.212712	2
9	9884	0.221124935149	3
9	9948	0.221668935149	2
9	10051	0.22266436095	3
9	10107	0.22320836095	2
9	10154	0.22370836095	3
9	10191	0.22425236095	2
9	10549	0.231168935149	3
9	10596	0.231712935149	2
9	10620	0.231832935149	3
9	10656	0.232376935149	2
9	10669	0.232496935149	3
9	10694	0.233040935149	2
9	10909	0.24036	3
9	10935	0.240904	2
9	10972	0.241464	3
9	11020	0.242008	2
9	11031	0.242128	3
9	11080	0.242672	2
9	11319	0.25008	3
9	11352	0.250624	2
9	11400	0.251004	3
9	11436	0.251548	2
9	11471	0.252068	3
9	11508	0.252612	2
9	11749	0.26034	3
9	11785	0.260884	2
9	11832	0.261384	3
9	11869	0.261928	2
9	11881	0.261948	3
9	11915	0.262492	2
9	12178	0.27044	3
9	12237	0.270984	2
9	12249	0.271244	3
9	12296	0.271788	2
9	12308	0.271868	3
9	12344	0.272412	2
9	12573	0.28006	3
9	12596	0.280604	2
9	12635	0.281044	3
9	12672	0.281588	2
9	12686	0.281928	3
9	12722	0.282472	2
9	13044	0.290844935149	3
9	13090	0.291388935149	2
9	13103	0.291608935149	3
9	13148	0.292152935149	2
9	13220	0.293238083033	3
9	13256	0.293782083033	2
9	13733	0.302597799514	3
9	13800	0.303141799514	2
9	13924	0.304255198109	3
9	13977	0.304799198109	2
9	14013	0.305319198109	3
9	14035	0.305863198109	2
9	14120	0.31022	3
9	14182	0.310764	2
9	14218	0.311224	3
9	14253	0.311768	2
9	14265	0.311848	3
9	14323	0.312392	2
9	14823	0.321044935149	3
9	14857	0.321588935149	2
9	14901	0.321908935149	3
9	14945	0.322452935149	2
9	14955	0.322572935149	3
9	14989	0.323116935149	2
9	15407	0.332052935149	3
9	15440	0.332596935149	2
10	0	0	1
10	3949	0.10014	0
10	4294	0.105484	1
10	4323	0.105564	0
10	4440	0.110908	1
10	4480	0.111128	0
10	4761	0.116472	1
10	4782	0.116693244064	3
10	4794	0.117237244064	1
10	4813	0.117317244064	3
10	4825	0.117861244064	1
10	4844	0.118061750236	3
10	4860	0.118605750236	1
10	4872	0.118666096324	3
10	4882	0.119210096324	1
10	4905	0.11925124198	3
10	4921	0.11979524198	1
10	5006	0.12017524198	3
10	5044	0.12071924198	1
10	5079	0.120959426569	3
10	5112	0.121215426569	1
10	5140	0.121355426569	3
10	5174	0.121611426569	1
10	5213	0.121931426569	3
10	5234	0.122187426569	1
10	5271	0.122468862808	3
10	5305	0.123012862808	1
10	5343	0.123413426268	3
10	5378	0.123669426268	1
10	5416	0.124149426268	3
10	5441	0.124405426268	1
10	5468	0.124581977001	3
10	5499	0.125125977001	1
10	5528	0.125366557289	3
10	5538	0.125910557289	1
10	5571	0.126511475226	3
10	5582	0.126767475226	1
10	5609	0.127267475226	3
10	5623	0.127523475226	1
10	5638	0.127923475226	3
10	5649	0.128179475226	1
10	8729	0.20006	0
10	9073	0.205404	1
10	9091	0.205424	0
10	9241	0.210768	1
10	9285	0.211128	0
10	9562	0.216472	1
10	9581	0.216733235702	3
10	9597	0.217277235702	1
10	9611	0.217537235702	3
10	9627	0.218081235702	1
10	9641	0.218221235702	3
10	9656	0.218765235702	1
10	9670	0.218825750236	3
10	9682	0.219369750236	1
10	9700	0.219390313696	3
10	9714	0.219646313696	1
10	9729	0.219967183468	3
10	9823	0.220511183468	1
10	9840	0.220591362202	3
10	9896	0.221135362202	1
10	9916	0.221155362202	3
10	9971	0.221699362202	1
10	9993	0.221760348866	3
10	10038	0.222304348866	1
10	10065	0.222704912326	3
10	10086	0.222960912326	1
10	10099	0.223120912326	3
10	10122	0.223376912326	1
10	10146	0.223516912326	3
10	10168	0.223772912326	1
10	10203	0.224282557289	3
10	10224	0.224826557289	1
10	10256	0.225067475226	3
10	10278	0.225323475226	1
10	10318	0.225763475226	3
10	10329	0.226019475226	1
10	13489	0.300180622032	3
10	13536	0.300724622032	1
10	13554	0.300784622032	3
10	13601	0.301328622032	1
10	13617	0.301368800766	3
10	13661	0.301912800766	1
10	13684	0.30201378743	3
10	13720	0.30255778743	1
10	13769	0.30277835089	3
10	13780	0.30303435089	1
10	13792	0.30305435089	3
10	13848	0.30331035089	1
10	13861	0.303330833429	3
10	13892	0.303874833429	1
10	13914	0.303995179517	3
10	13947	0.304539179517	1
10	13988	0.304999179517	0
10	14142	0.310343179517	1
10	14169	0.310403179517	0
10	14505	0.315747179517	1
10	14524	0.315808117269	3
10	14535	0.316064117269	1
10	14552	0.316204117269	3
10	14566	0.316460117269	1
10	14580	0.316640117269	3
10	14591	0.316896117269	1
10	14609	0.317036599808	3
10	14625	0.317580599808	1
10	14639	0.317600599808	3
10	14656	0.318144599808	1
10	14661	0.318144784397	3
10	14678	0.318400784397	1
10	14692	0.318560784397	0
10	15054	0.323904784397	1
10	15096	0.324265722149	3
10	15110	0.324521722149	2
10	15111	0.324521722149	3
10	15161	0.324777722149	1
10	15174	0.325238138468	3
10	15185	0.325782138468	1
11	0	0	1
11	3952	0.100140468876	3
11	4297	0.105484468876	1
11	4326	0.105564468876	3
11	4443	0.110908468876	1
11	4483	0.111128468876	3
11	4764	0.116472468876	1
11	4784	0.116693338648	3
11	4798	0.117237338648	1
11	4815	0.117317338648	3
11	4829	0.117861338648	1
11	4842	0.118061465949	3
11	4852	0.118605465949	1
11	4874	0.118666545385	3
11	4886	0.119210545385	1
11	4903	0.119250957693	3
11	4913	0.119794957693	1
11	5004	0.120174957693	3
11	5037	0.120718957693	1
11	5076	0.120958957693	0
11	5110	0.121214957693	1
11	5137	0.121354957693	0
11	5172	0.121610957693	1
11	5210	0.121930957693	0
11	5232	0.122186957693	1
11	5273	0.122468957392	3
11	5309	0.123012957392	1
11	5340	0.123412957392	0
11	5375	0.123668957392	1
11	5413	0.124148957392	0
11	5435	0.124404957392	1
11	5473	0.124582426062	3
11	5507	0.125126426062	1
11	5530	0.12536700635	3
11	5542	0.12591100635	1
11	5568	0.12651100635	0
11	5579	0.12676700635	1
11	5606	0.12726700635	0
11	5617	0.12752300635	1
11	5635	0.12792300635	0
11	5646	0.12817900635	1
11	8734	0.200060468876	3
11	9076	0.205404468876	1
11	9094	0.205424468876	0
11	9125	0.205680468876	2
11	9244	0.210768468876	1
11	9288	0.211128468876	3
11	9564	0.216472468876	1
11	9579	0.216732951415	3
11	9589	0.217276951415	1
11	9609	0.217536951415	3
11	9619	0.218080951415	1
11	9639	0.218220951415	3
11	9649	0.218764951415	1
11	9672	0.21882584482	3
11	9686	0.21936984482	1
11	9697	0.21938984482	0
11	9708	0.21964584482	1
11	9731	0.219967278052	3
11	9827	0.220511278052	1
11	9842	0.220591811263	3
11	9900	0.221135811263	1
11	9918	0.221155811263	3
11	9975	0.221699811263	1
11	9995	0.22176044345	3
11	10041	0.22230444345	1
11	10062	0.22270444345	0
11	10084	0.22296044345	1
11	10096	0.22312044345	0
11	10120	0.22337644345	1
11	10143	0.22351644345	0
11	10165	0.22377244345	1
11	10205	0.22428300635	3
11	10228	0.22482700635	1
11	10253	0.22506700635	0
11	10275	0.22532300635	1
11	10315	0.22576300635	0
11	10326	0.22601900635	1
11	13491	0.300180716616	3
11	13540	0.300724716616	1
11	13556	0.300784716616	3
11	13605	0.301328716616	1
11	13619	0.301369249827	3
11	13665	0.301913249827	1
11	13686	0.302013882014	3
11	13723	0.302557882014	1
11	13766	0.302777882014	0
11	13778	0.303033882014	1
11	13789	0.303053882014	0
11	13846	0.303309882014	1
11	13859	0.303330549142	3
11	13884	0.303874549142	1
11	13916	0.303995628578	3
11	13951	0.304539628578	1
11	13991	0.304999648393	3
11	14144	0.310343648393	1
11	14172	0.310403648393	3
11	14507	0.315747648393	1
11	14521	0.315807648393	0
11	14532	0.316063648393	1
11	14549	0.316203648393	0
11	14560	0.316459648393	1
11	14577	0.316639648393	0
11	14588	0.316895648393	1
11	14607	0.317036315521	3
11	14617	0.317580315521	1
11	14637	0.317600315521	3
11	14647	0.318144315521	1
11	14650	0.318144315521	0
11	14675	0.318400315521	1
11	14695	0.318561253273	3
11	15057	0.323905253273	1
11	15093	0.324265253273	0
11	15104	0.324521253273	1
11	15105	0.324521253273	0
11	15155	0.324777253273	1
11	15176	0.325238587529	3
11	15189	0.325782587529	1
12	0	0	1
12	119	0.010140982531	3
12	157	0.010684982531	2
12	158	0.010684982531	3
12	210	0.011228982531	1
12	255	0.011728982531	3
12	300	0.012272982531	1
12	527	0.020020982531	3
12	561	0.020564982531	1
12	593	0.020744982531	3
12	630	0.021288982531	1
12	689	0.022054852829	3
12	714	0.022598852829	1
12	1005	0.03102591768	3
12	1058	0.03156991768	2
12	1059	0.03156991768	3
12	1106	0.03211391768	2
12	1107	0.03211391768	3
12	1149	0.03265791768	1
12	1377	0.040500982531	3
12	1424	0.041044982531	1
12	1436	0.041104982531	3
12	1483	0.041648982531	1
12	1582	0.042994852829	3
12	1627	0.043538852829	1
12	1845	0.05084591768	3
12	1871	0.05138991768	1
12	1906	0.05170991768	3
12	1952	0.05225391768	1
12	1965	0.05241391768	3
12	2001	0.05295791768	1
12	2266	0.06138591768	3
12	2301	0.06192991768	1
12	2400	0.063155065564	3
12	2424	0.063699065564	1
12	2485	0.064564935862	3
12	2520	0.065108935862	1
12	2651	0.070200982531	3
12	2696	0.070744982531	1
12	2710	0.071184982531	3
12	2758	0.071728982531	1
12	2794	0.071948982531	3
12	2840	0.072492982531	1
12	3070	0.080180982531	3
12	3117	0.080724982531	1
12	3130	0.081004982531	3
12	3165	0.081548982531	1
12	3211	0.081788982531	3
12	3258	0.082332982531	1
12	3485	0.090600982531	3
12	3542	0.091144982531	1
12	3566	0.09116591768	3
12	3603	0.09170991768	1
12	3629	0.09218991768	3
12	3665	0.09273391768	1
12	3953	0.100140617851	3
12	4303	0.105484617851	1
12	4327	0.105564617851	3
12	4449	0.110908617851	2
12	4464	0.111004982531	1
12	4484	0.111128617851	3
12	4769	0.116472617851	1
12	4780	0.116693132385	3
12	4790	0.117237132385	1
12	4811	0.117317132385	3
12	4821	0.117861132385	1
12	4840	0.118061132385	0
12	4851	0.118605132385	1
12	4875	0.118666624129	3
12	4892	0.119210624129	1
12	4901	0.119250624129	0
12	4912	0.119794624129	1
12	5002	0.120174624129	0
12	5036	0.120718624129	1
12	5068	0.120840589191	3
12	5151	0.121384589191	2
12	5173	0.121611291257	1
12	5203	0.121864589191	3
12	5259	0.122408589191	1
12	5269	0.122468751129	3
12	5301	0.123012751129	1
12	5342	0.123413290956	3
12	5376	0.123669290956	1
12	5415	0.124149290956	3
12	5436	0.124405290956	2
12	5475	0.124582504806	3
12	5514	0.125126504806	1
12	5531	0.125367085094	3
12	5547	0.125911085094	1
12	5570	0.126511339914	3
12	5580	0.126767339914	1
12	5608	0.127267339914	3
12	5618	0.127523339914	1
12	5637	0.127923339914	3
12	5647	0.128179339914	1
12	5752	0.130380982531	3
12	5788	0.130924982531	1
12	5823	0.131324982531	3
12	5882	0.131868982531	1
12	5895	0.132068982531	3
12	5941	0.132612982531	1
12	6166	0.140340982531	3
12	6213	0.140884982531	1
12	6239	0.140924982531	3
12	6274	0.141468982531	1
12	6295	0.141528982531	3
12	6320	0.142072982531	1
12	6679	0.15176991768	3
12	6715	0.15231391768	1
12	6727	0.15243391768	3
12	6770	0.15297791768	2
12	6771	0.15297791768	3
12	6814	0.15352191768	1
12	7102	0.16168991768	3
12	7138	0.16223391768	1
12	7222	0.163479065564	3
12	7267	0.164023065564	1
12	7294	0.164483065564	3
12	7330	0.165027065564	1
12	7417	0.170040982531	3
12	7452	0.170584982531	1
12	7493	0.171104982531	3
12	7530	0.171648982531	1
12	7676	0.173498852829	3
12	7712	0.174042852829	1
12	7917	0.18154991768	3
12	7965	0.18209391768	1
12	8000	0.18241391768	3
12	8047	0.18295791768	1
12	8060	0.18315791768	3
12	8094	0.18370191768	1
12	8250	0.190040982531	3
12	8284	0.190584982531	1
12	8474	0.193098491622	3
12	8500	0.193642491622	1
12	8513	0.193802491622	3
12	8537	0.194346491622	1
12	8736	0.200060617851	3
12	9082	0.205404617851	1
12	9097	0.205424617851	3
12	9245	0.210768617851	2
12	9268	0.211044982531	1
12	9289	0.211128617851	3
12	9569	0.216472617851	1
12	9577	0.216732617851	0
12	9588	0.217276617851	1
12	9607	0.217536617851	0
12	9618	0.218080617851	1
12	9637	0.218220617851	0
12	9648	0.218764617851	1
12	9668	0.218825638557	3
12	9678	0.219369638557	1
12	9699	0.219390178384	3
12	9709	0.219646178384	1
12	9727	0.219967071789	3
12	9819	0.220511071789	1
12	9843	0.220591890007	3
12	9906	0.221135890007	2
12	9919	0.221155890007	3
12	9981	0.221699890007	1
12	9991	0.221760237187	3
12	10034	0.222304237187	1
12	10055	0.222665343481	3
12	10112	0.223209343481	2
12	10121	0.223376777014	1
12	10145	0.223516777014	3
12	10166	0.223772777014	2
12	10194	0.224253343481	1
12	10206	0.224283085094	3
12	10233	0.224827085094	1
12	10255	0.225067339914	3
12	10276	0.225323339914	1
12	10317	0.225763339914	3
12	10327	0.226019339914	1
12	10553	0.23116991768	3
12	10601	0.23171391768	1
12	10624	0.23183391768	3
12	10661	0.23237791768	1
12	10673	0.23249791768	3
12	10699	0.23304191768	1
12	10913	0.240360982531	3
12	10940	0.240904982531	1
12	10976	0.241464982531	3
12	11023	0.242008982531	1
12	11035	0.242128982531	3
12	11083	0.242672982531	1
12	11323	0.250080982531	3
12	11357	0.250624982531	1
12	11404	0.251004982531	3
12	11445	0.251548982531	1
12	11475	0.252068982531	3
12	11511	0.252612982531	1
12	11753	0.260340982531	3
12	11790	0.260884982531	1
12	11836	0.261384982531	3
12	11872	0.261928982531	1
12	11887	0.261948982531	3
12	11922	0.262492982531	1
12	12182	0.270440982531	3
12	12240	0.270984982531	1
12	12253	0.271244982531	3
12	12299	0.271788982531	1
12	12312	0.271868982531	3
12	12349	0.272412982531	1
12	12577	0.280060982531	3
12	12601	0.280604982531	1
12	12639	0.281044982531	3
12	12677	0.281588982531	1
12	12690	0.281928982531	3
12	12729	0.282472982531	1
12	13048	0.29084591768	3
12	13094	0.29138991768	1
12	13107	0.29160991768	3
12	13153	0.29215391768	1
12	13224	0.293239065564	3
12	13261	0.293783065564	1
12	13487	0.300180510353	3
12	13533	0.300724510353	1
12	13552	0.300784510353	3
12	13598	0.301328510353	1
12	13620	0.301369328571	3
12	13671	0.301913328571	1
12	13682	0.302013675751	3
12	13716	0.302557675751	1
12	13740	0.302598782045	3
12	13807	0.303142782045	2
12	13847	0.303310215578	1
12	13857	0.303330215578	0
12	13883	0.303874215578	1
12	13917	0.303995707322	3
12	13957	0.304539707322	2
12	13981	0.30480018064	1
12	13992	0.304999797368	3
12	14150	0.310343797368	2
12	14173	0.310403797368	3
12	14513	0.315747797368	1
12	14523	0.315807981957	3
12	14533	0.316063981957	1
12	14551	0.316203981957	3
12	14561	0.316459981957	1
12	14579	0.316639981957	3
12	14589	0.316895981957	1
12	14605	0.317035981957	0
12	14616	0.317579981957	1
12	14635	0.317599981957	0
12	14646	0.318143981957	1
12	14658	0.318144649085	3
12	14676	0.318400649085	1
12	14696	0.318561402248	3
12	15062	0.323905402248	1
12	15095	0.324265586837	3
12	15107	0.324521586837	2
12	15108	0.324521586837	3
12	15156	0.324777586837	1
12	15177	0.325238666273	3
12	15194	0.325782666273	1
12	15411	0.33205391768	3
13	0	0	1
13	141	0.010580856627	3
13	197	0.011124856627	1
13	222	0.011304856627	3
13	266	0.011848856627	1
13	290	0.012133758934	3
13	324	0.012677758934	1
13	336	0.013137758934	3
13	370	0.013681758934	1
13	404	0.014281758934	3
13	427	0.014825758934	1
13	439	0.015286339222	3
13	451	0.015830339222	1
13	546	0.020520856627	3
13	604	0.021064856627	1
13	701	0.022133758934	3
13	727	0.022677758934	1
13	740	0.022737758934	3
13	764	0.023281758934	1
13	787	0.023521758934	3
13	812	0.024065758934	1
13	837	0.024868236016	3
13	849	0.025412236016	1
13	862	0.025632236016	3
13	875	0.026176236016	1
13	994	0.030945430569	3
13	1031	0.031489430569	1
13	1044	0.031549430569	3
13	1090	0.032093430569	1
13	1125	0.032193430569	3
13	1162	0.032737430569	1
13	1196	0.033293758934	3
13	1231	0.033837758934	1
13	1243	0.033877758934	3
13	1267	0.034421758934	1
13	1280	0.034741758934	3
13	1292	0.035285758934	1
13	1399	0.040620856627	3
13	1447	0.041164856627	1
13	1469	0.041229758934	3
13	1497	0.041773758934	1
13	1509	0.041833758934	3
13	1534	0.042377758934	1
13	1557	0.042654365718	3
13	1594	0.043198365718	1
13	1607	0.043218365718	3
13	1641	0.043762365718	1
13	1666	0.043963157282	3
13	1691	0.044507157282	1
13	1787	0.050160962265	3
13	1811	0.050704962265	1
13	1883	0.051405430569	3
13	1919	0.051949430569	1
13	1942	0.052109430569	3
13	1989	0.052653430569	1
13	2035	0.053458555603	3
13	2072	0.054002555603	1
13	2084	0.054062555603	3
13	2109	0.054606555603	1
13	2121	0.054847135891	3
13	2134	0.055391135891	1
13	2278	0.061405430569	3
13	2314	0.061949430569	1
13	2325	0.061950222133	3
13	2350	0.062494222133	1
13	2362	0.062574222133	3
13	2388	0.063118222133	1
13	2411	0.063238222133	3
13	2437	0.063782222133	1
13	2497	0.064684448751	3
13	2531	0.065228448751	1
13	2544	0.065588448751	3
13	2556	0.066132448751	1
13	2632	0.070060856627	3
13	2665	0.070604856627	1
13	2686	0.070665758934	3
13	2722	0.071209758934	1
13	2734	0.071310339222	3
13	2774	0.071854339222	2
13	2775	0.071854339222	3
13	2817	0.072398339222	1
13	2877	0.073179352272	3
13	2901	0.073723352272	1
13	2925	0.073943352272	3
13	2949	0.074487352272	1
13	3052	0.080060856627	3
13	3085	0.080604856627	2
13	3089	0.080604962265	1
13	3141	0.081065542553	3
13	3187	0.081609542553	1
13	3199	0.081669542553	3
13	3234	0.082213542553	1
13	3295	0.083098555603	3
13	3330	0.083642555603	1
13	3343	0.083782555603	3
13	3366	0.084326555603	1
13	3481	0.090600856627	3
13	3537	0.091144856627	1
13	3591	0.091629758934	3
13	3617	0.092173758934	1
13	3653	0.092574339222	3
13	3688	0.093118339222	1
13	3700	0.093179130786	3
13	3725	0.093723130786	1
13	3737	0.093863130786	3
13	3762	0.094407130786	1
13	3774	0.094467711074	3
13	3786	0.095011711074	1
13	3951	0.100140218067	3
13	4295	0.105484218067	2
13	4316	0.105486555603	1
13	4325	0.105564218067	3
13	4441	0.110908218067	2
13	4482	0.111128218067	3
13	4762	0.116472218067	1
13	4781	0.116693204731	3
13	4792	0.117237204731	1
13	4812	0.117317204731	3
13	4823	0.117861204731	1
13	4845	0.118061878257	3
13	4862	0.118605878257	1
13	4870	0.118665878257	0
13	4881	0.119209878257	1
13	4906	0.119251370001	3
13	4923	0.119795370001	1
13	5007	0.120175370001	3
13	5046	0.120719370001	1
13	5057	0.120785430569	3
13	5128	0.121329430569	1
13	5141	0.121355624821	3
13	5179	0.121611624821	2
13	5214	0.121931624821	3
13	5236	0.122187624821	1
13	5270	0.122468823475	3
13	5303	0.123012823475	1
13	5333	0.123093758934	3
13	5367	0.123637758934	2
13	5380	0.12366962452	1
13	5395	0.123957758934	3
13	5456	0.124501758934	1
13	5466	0.124581758934	0
13	5498	0.125125758934	2
13	5504	0.125126339222	1
13	5526	0.125366339222	0
13	5537	0.125910339222	1
13	5560	0.126352263752	3
13	5597	0.126896263752	1
13	5610	0.127267673478	3
13	5625	0.127523673478	1
13	5639	0.127923673478	3
13	5651	0.128179673478	1
13	5741	0.130340856627	3
13	5776	0.130884856627	1
13	5800	0.130964856627	3
13	5837	0.131508856627	1
13	5872	0.131828856627	3
13	5917	0.132372856627	1
13	5930	0.132393648191	3
13	5955	0.132937648191	1
13	5979	0.133017648191	3
13	6003	0.133561648191	1
13	6028	0.133881648191	3
13	6052	0.134425648191	1
13	6155	0.140060856627	3
13	6190	0.140604856627	1
13	6203	0.140804856627	3
13	6260	0.141348856627	1
13	6306	0.141549758934	3
13	6338	0.142093758934	1
13	6349	0.142094339222	3
13	6388	0.142638339222	1
13	6427	0.143299352272	3
13	6463	0.143843352272	1
13	6475	0.143903352272	3
13	6500	0.144447352272	1
13	6656	0.151409430569	3
13	6690	0.151953430569	1
13	6703	0.152014222133	3
13	6739	0.152558222133	1
13	6753	0.152698222133	3
13	6790	0.153242222133	1
13	6802	0.153342222133	3
13	6829	0.153886222133	1
13	6841	0.154066802421	3
13	6866	0.154610802421	1
13	6879	0.154750802421	3
13	6901	0.155294802421	1
13	7030	0.160565758934	3
13	7066	0.161109758934	1
13	7114	0.161789430569	3
13	7150	0.162333430569	1
13	7162	0.162394222133	3
13	7186	0.162938222133	1
13	7198	0.162978222133	3
13	7234	0.163522222133	1
13	7262	0.164022802421	3
13	7304	0.164566802421	1
13	7318	0.164646802421	3
13	7342	0.165190802421	1
13	7439	0.170440856627	3
13	7475	0.170984856627	1
13	7490	0.171104856627	3
13	7526	0.171648856627	1
13	7557	0.171929758934	3
13	7587	0.172473758934	2
13	7588	0.172473758934	3
13	7630	0.173017758934	1
13	7665	0.173358365718	3
13	7699	0.173902365718	1
13	7724	0.174323157282	3
13	7749	0.174867157282	1
13	7845	0.180440962265	3
13	7874	0.180984962265	1
13	7894	0.181264962265	3
13	7932	0.181808962265	1
13	7939	0.181809542553	3
13	7977	0.182353542553	1
13	7989	0.182393542553	3
13	8035	0.182937542553	1
13	8082	0.183517542553	3
13	8120	0.184061542553	1
13	8154	0.185002555603	3
13	8178	0.185546555603	1
13	8264	0.190120856627	3
13	8299	0.190664856627	1
13	8425	0.192373758934	3
13	8449	0.192917758934	1
13	8463	0.192977758934	3
13	8487	0.193521758934	1
13	8524	0.193901758934	3
13	8550	0.194445758934	1
13	8563	0.195046339222	3
13	8577	0.195590339222	1
13	8590	0.196090339222	3
13	8602	0.196634339222	1
13	8733	0.200060218067	3
13	9074	0.205404218067	1
13	9093	0.205424218067	3
13	9242	0.210768218067	1
13	9258	0.210864856627	3
13	9316	0.211408856627	2
13	9317	0.211408856627	3
13	9358	0.211952856627	2
13	9426	0.212793758934	3
13	9449	0.213337758934	2
13	9463	0.213397758934	3
13	9495	0.213941758934	2
13	9507	0.214181758934	3
13	9541	0.214725758934	2
13	9563	0.216472218067	1
13	9582	0.216733363723	3
13	9599	0.217277363723	1
13	9612	0.217537363723	3
13	9629	0.218081363723	1
13	9642	0.218221363723	3
13	9658	0.218765363723	1
13	9669	0.218825710903	3
13	9680	0.219369710903	1
13	9701	0.219390511948	3
13	9716	0.219646511948	1
13	9728	0.219967144135	3
13	9821	0.220511144135	1
13	9838	0.220591144135	0
13	9895	0.221135144135	1
13	9914	0.221155144135	0
13	9970	0.221699144135	1
13	9992	0.221760309533	3
13	10036	0.222304309533	2
13	10066	0.222705110578	3
13	10088	0.222961110578	1
13	10100	0.223121110578	3
13	10124	0.223377110578	1
13	10136	0.223378339222	3
13	10182	0.223922339222	1
13	10201	0.224282339222	0
13	10223	0.224826339222	1
13	10257	0.225067673478	3
13	10280	0.225323673478	2
13	10302	0.225662726668	3
13	10343	0.226206726668	1
13	10356	0.226407518232	3
13	10369	0.226951518232	1
13	10381	0.227011518232	3
13	10394	0.227555518232	1
13	10564	0.231269430569	3
13	10612	0.231813430569	1
13	10648	0.232273758934	3
13	10685	0.232817758934	1
13	10711	0.233177758934	3
13	10736	0.233721758934	1
13	10749	0.234081758934	3
13	10773	0.234625758934	1
13	10787	0.234986339222	3
13	10800	0.235530339222	1
13	10814	0.235910339222	3
13	10827	0.236454339222	1
13	10902	0.240240962265	3
13	10927	0.240784962265	1
13	10952	0.241045542553	3
13	10988	0.241589542553	1
13	11002	0.241769542553	3
13	11048	0.242313542553	1
13	11073	0.242393542553	3
13	11107	0.242937542553	1
13	11154	0.243698555603	3
13	11179	0.244242555603	1
13	11215	0.244862555603	3
13	11238	0.245406555603	1
13	11345	0.250140856627	3
13	11379	0.250684856627	1
13	11391	0.250764856627	3
13	11427	0.251308856627	1
13	11442	0.251548856627	3
13	11487	0.252092856627	1
13	11535	0.252813758934	3
13	11560	0.253357758934	1
13	11583	0.253497758934	3
13	11608	0.254041758934	1
13	11632	0.254361758934	3
13	11645	0.254905758934	1
13	11764	0.260480856627	3
13	11801	0.261024856627	1
13	11813	0.261204856627	3
13	11849	0.261748856627	1
13	11906	0.262048856627	3
13	11941	0.262592856627	1
13	11954	0.262673648191	3
13	11978	0.263217648191	1
13	11990	0.263357648191	3
13	12015	0.263901648191	1
13	12040	0.264361648191	3
13	12063	0.264905648191	1
13	12171	0.270140856627	3
13	12204	0.270684856627	1
13	12217	0.270744856627	3
13	12265	0.271288856627	1
13	12288	0.271569758934	3
13	12325	0.272113758934	1
13	12337	0.272214339222	3
13	12374	0.272758339222	1
13	12407	0.273199352272	3
13	12443	0.273743352272	1
13	12468	0.274083352272	3
13	12492	0.274627352272	1
13	12588	0.280200962265	3
13	12615	0.280744962265	1
13	12627	0.280844962265	3
13	12652	0.281388962265	1
13	12665	0.281549542553	3
13	12712	0.282093542553	1
13	12737	0.282473542553	3
13	12762	0.283017542553	1
13	12787	0.283217542553	3
13	12822	0.283761542553	1
13	12858	0.284422555603	3
13	12883	0.284966555603	1
13	13037	0.290765430569	3
13	13070	0.291309430569	1
13	13118	0.291629430569	3
13	13164	0.292173430569	1
13	13200	0.292993758934	3
13	13235	0.293537758934	1
13	13247	0.293558339222	3
13	13273	0.294102339222	1
13	13297	0.294563130786	3
13	13322	0.295107130786	1
13	13335	0.295627130786	3
13	13347	0.296171130786	1
13	13478	0.300080962265	3
13	13512	0.300624962265	2
13	13524	0.300664962265	3
13	13588	0.301208962265	2
13	13600	0.301328582699	1
13	13615	0.301368582699	0
13	13660	0.301912582699	1
13	13683	0.302013748097	3
13	13718	0.302557748097	1
13	13742	0.302598978093	3
13	13811	0.303142978093	2
13	13839	0.303258555603	3
13	13875	0.303802555603	2
13	13894	0.30387496145	1
13	13912	0.30399496145	0
13	13946	0.30453896145	1
13	13969	0.304600674704	3
13	14004	0.305144674704	2
13	14028	0.305664674704	3
13	14052	0.306208674704	2
13	14143	0.310343397584	1
13	14162	0.310380856627	3
13	14209	0.310924856627	2
13	14245	0.311464856627	3
13	14291	0.312008856627	2
13	14316	0.312388856627	3
13	14350	0.312932856627	2
13	14376	0.313513648191	3
13	14401	0.314057648191	2
13	14424	0.314277648191	3
13	14450	0.314821648191	2
13	14474	0.315181648191	3
13	14497	0.315725648191	2
13	14506	0.315747397584	1
13	14525	0.315808315521	3
13	14537	0.316064315521	1
13	14553	0.316204315521	3
13	14568	0.316460315521	1
13	14581	0.316640315521	3
13	14593	0.316896315521	1
13	14610	0.317036727829	3
13	14627	0.317580727829	1
13	14640	0.317600727829	3
13	14659	0.318144727829	1
13	14664	0.318144982649	3
13	14683	0.318400982649	1
13	14694	0.318561002464	3
13	15055	0.323905002464	1
13	15097	0.324265920401	3
13	15116	0.324521920401	2
13	15117	0.324521920401	3
13	15163	0.324777920401	1
13	15172	0.325237920401	0
13	15184	0.325781920401	1
13	15284	0.330320962265	3
13	15322	0.330864962265	2
13	15323	0.330864962265	3
13	15368	0.331408962265	2
13	15369	0.331408962265	3
13	15399	0.331952962265	1
13	15433	0.332493542553	3
14	0	0	1
14	117	0.010140634116	3
14	151	0.010684634116	2
14	152	0.010684634116	3
14	206	0.011228634116	1
14	223	0.011304956068	3
14	268	0.011848956068	2
14	298	0.012272634116	1
14	440	0.015286438663	3
14	453	0.015830438663	1
14	524	0.020020634116	3
14	555	0.020564634116	2
14	591	0.020744634116	3
14	626	0.021288634116	1
14	686	0.022054504414	3
14	710	0.022598504414	1
14	838	0.024868335457	3
14	851	0.025412335457	1
14	863	0.025632335457	3
14	877	0.026176335457	1
14	995	0.03094553001	3
14	1033	0.03148953001	2
14	1045	0.03154953001	3
14	1092	0.03209353001	2
14	1103	0.032113569265	3
14	1145	0.032657569265	2
14	1164	0.03273753001	1
14	1375	0.040500634116	3
14	1420	0.041044634116	2
14	1434	0.041104634116	3
14	1479	0.041648634116	1
14	1558	0.042654465159	3
14	1596	0.043198465159	2
14	1608	0.043218465159	3
14	1643	0.043762465159	1
14	1843	0.050845569265	3
14	1867	0.051389569265	1
14	1884	0.05140553001	3
14	1921	0.05194953001	2
14	1943	0.05210953001	3
14	1991	0.05265353001	2
14	1999	0.052957569265	1
14	2122	0.054847235332	3
14	2136	0.055391235332	1
14	2264	0.061385569265	3
14	2297	0.061929569265	2
14	2316	0.06194953001	1
14	2398	0.063154717149	3
14	2420	0.063698717149	1
14	2483	0.064564587447	3
14	2516	0.065108587447	2
14	2533	0.065228548192	1
14	2545	0.065588548192	3
14	2558	0.066132548192	1
14	2633	0.070060956068	3
14	2667	0.070604956068	2
14	2694	0.070744634116	1
14	2708	0.071184634116	3
14	2754	0.071728634116	2
14	2778	0.071854438663	3
14	2819	0.072398438663	2
14	2838	0.072492634116	1
14	3053	0.080060956068	3
14	3087	0.080604956068	2
14	3115	0.080724634116	1
14	3128	0.081004634116	3
14	3161	0.081548634116	2
14	3189	0.081609641994	1
14	3200	0.081669641994	3
14	3236	0.082213641994	2
14	3256	0.082332634116	1
14	3479	0.090600634116	3
14	3534	0.091144634116	2
14	3541	0.091144956068	1
14	3564	0.091165569265	3
14	3599	0.091709569265	1
14	3627	0.092189569265	3
14	3661	0.092733569265	2
14	3690	0.093118438663	1
14	3775	0.094467810515	3
14	3788	0.095011810515	1
14	3954	0.100140622032	3
14	4305	0.105484622032	1
14	4328	0.105564622032	3
14	4451	0.110908622032	2
14	4459	0.111004634116	1
14	4485	0.111128622032	3
14	4771	0.116472622032	1
14	4778	0.116692622032	0
14	4789	0.117236622032	1
14	4809	0.117316622032	0
14	4820	0.117860622032	1
14	4843	0.118061642738	3
14	4858	0.118605642738	1
14	4873	0.118666460956	3
14	4884	0.119210460956	1
14	4904	0.119251134482	3
14	4919	0.119795134482	1
14	5005	0.120175134482	3
14	5042	0.120719134482	1
14	5058	0.12078553001	3
14	5130	0.12132953001	2
14	5142	0.121355674309	3
14	5181	0.121611674309	2
14	5201	0.121864240776	3
14	5256	0.122408240776	1
14	5267	0.122468240776	0
14	5300	0.123012240776	1
14	5345	0.123413674008	3
14	5381	0.123669674008	1
14	5418	0.124149674008	3
14	5444	0.124405674008	2
14	5472	0.124582341633	3
14	5505	0.125126341633	2
14	5513	0.125126438663	1
14	5529	0.125366921921	3
14	5540	0.125910921921	1
14	5573	0.126511722966	3
14	5585	0.126767722966	1
14	5611	0.127267722966	3
14	5627	0.127523722966	1
14	5640	0.127923722966	3
14	5656	0.128179722966	1
14	5742	0.130340956068	3
14	5778	0.130884956068	2
14	5786	0.130924634116	1
14	5801	0.130964956068	3
14	5839	0.131508956068	2
14	5873	0.131828956068	3
14	5919	0.132372956068	2
14	5939	0.132612634116	1
14	6156	0.140060956068	3
14	6192	0.140604956068	2
14	6204	0.140804956068	3
14	6262	0.141348956068	2
14	6271	0.141468634116	1
14	6293	0.141528634116	3
14	6316	0.142072634116	1
14	6352	0.142094438663	3
14	6391	0.142638438663	1
14	6657	0.15140953001	3
14	6692	0.15195353001	2
14	6713	0.152313569265	1
14	6725	0.152433569265	3
14	6764	0.152977569265	2
14	6765	0.152977569265	3
14	6810	0.153521569265	1
14	6842	0.154066901862	3
14	6868	0.154610901862	1
14	6880	0.154750901862	3
14	6903	0.155294901862	1
14	7100	0.161689569265	3
14	7134	0.162233569265	2
14	7152	0.16233353001	1
14	7220	0.163478717149	3
14	7260	0.164022717149	1
14	7263	0.164022901862	3
14	7306	0.164566901862	2
14	7319	0.164646901862	3
14	7344	0.165190901862	1
14	7415	0.170040634116	3
14	7448	0.170584634116	2
14	7477	0.170984956068	1
14	7488	0.171104634116	3
14	7522	0.171648634116	2
14	7529	0.171648956068	1
14	7666	0.173358465159	3
14	7701	0.173902465159	2
14	7710	0.174042504414	1
14	7915	0.181549569265	3
14	7961	0.182093569265	2
14	7979	0.182353641994	1
14	7990	0.182393641994	3
14	8037	0.182937641994	2
14	8045	0.182957569265	1
14	8058	0.183157569265	3
14	8090	0.183701569265	2
14	8122	0.184061641994	1
14	8248	0.190040634116	3
14	8280	0.190584634116	2
14	8301	0.190664956068	1
14	8472	0.193098143207	3
14	8496	0.193642143207	1
14	8511	0.193802143207	3
14	8533	0.194346143207	1
14	8564	0.195046438663	3
14	8579	0.195590438663	1
14	8591	0.196090438663	3
14	8604	0.196634438663	1
14	8737	0.200060622032	3
14	9084	0.205404622032	1
14	9098	0.205424622032	3
14	9247	0.210768622032	2
14	9259	0.210864956068	3
14	9319	0.211408956068	2
14	9320	0.211408956068	3
14	9360	0.211952956068	2
14	9381	0.212168634116	3
14	9401	0.212712634116	2
14	9571	0.216472622032	1
14	9580	0.216733128204	3
14	9595	0.217277128204	1
14	9610	0.217537128204	3
14	9625	0.218081128204	1
14	9640	0.218221128204	3
14	9654	0.218765128204	1
14	9666	0.218825128204	0
14	9677	0.219369128204	1
14	9702	0.219390561436	3
14	9718	0.219646561436	1
14	9725	0.219966561436	0
14	9818	0.220510561436	1
14	9841	0.220591726834	3
14	9898	0.221135726834	2
14	9917	0.221155726834	3
14	9973	0.221699726834	1
14	9989	0.221759726834	0
14	10033	0.222303726834	1
14	10053	0.222664995066	3
14	10108	0.223208995066	2
14	10126	0.223377160066	1
14	10137	0.223378438663	3
14	10184	0.223922438663	2
14	10192	0.224252995066	1
14	10204	0.224282921921	3
14	10226	0.224826921921	1
14	10258	0.225067722966	3
14	10285	0.225323722966	2
14	10304	0.225662826109	3
14	10345	0.226206826109	1
14	10551	0.231169569265	3
14	10597	0.231713569265	2
14	10614	0.23181353001	1
14	10622	0.231833569265	3
14	10657	0.232377569265	1
14	10671	0.232497569265	3
14	10695	0.233041569265	1
14	10788	0.234986438663	3
14	10802	0.235530438663	1
14	10815	0.235910438663	3
14	10829	0.236454438663	1
14	10911	0.240360634116	3
14	10936	0.240904634116	1
14	10953	0.241045641994	3
14	10990	0.241589641994	2
14	11003	0.241769641994	3
14	11050	0.242313641994	2
14	11074	0.242393641994	3
14	11109	0.242937641994	1
14	11321	0.250080634116	3
14	11353	0.250624634116	2
14	11381	0.250684956068	1
14	11392	0.250764956068	3
14	11429	0.251308956068	2
14	11440	0.251548634116	1
14	11444	0.251548956068	3
14	11489	0.252092956068	2
14	11509	0.252612634116	1
14	11751	0.260340634116	3
14	11786	0.260884634116	2
14	11803	0.261024956068	1
14	11814	0.261204956068	3
14	11851	0.261748956068	2
14	11870	0.261928634116	1
14	11884	0.261948634116	3
14	11916	0.262492634116	2
14	11943	0.262592956068	1
14	12172	0.270140956068	3
14	12206	0.270684956068	2
14	12218	0.270744956068	3
14	12267	0.271288956068	2
14	12297	0.271788634116	1
14	12310	0.271868634116	3
14	12345	0.272412634116	2
14	12376	0.272758438663	1
14	12575	0.280060634116	3
14	12597	0.280604634116	1
14	12637	0.281044634116	3
14	12673	0.281588634116	2
14	12688	0.281928634116	3
14	12723	0.282472634116	1
14	12738	0.282473641994	3
14	12764	0.283017641994	1
14	12788	0.283217641994	3
14	12824	0.283761641994	1
14	13038	0.29076553001	3
14	13072	0.29130953001	2
14	13091	0.291389569265	1
14	13105	0.291609569265	3
14	13149	0.292153569265	2
14	13166	0.29217353001	1
14	13222	0.293238717149	3
14	13257	0.293782717149	2
14	13275	0.294102438663	1
14	13485	0.30018	0
14	13532	0.300724	1
14	13550	0.300784	0
14	13597	0.301328	1
14	13618	0.301369165398	3
14	13663	0.301913165398	1
14	13680	0.302013165398	0
14	13715	0.302557165398	1
14	13737	0.30259843363	3
14	13802	0.30314243363	2
14	13851	0.30331059863	1
14	13860	0.303330725931	3
14	13890	0.303874725931	1
14	13915	0.303995544149	3
14	13949	0.304539544149	2
14	13970	0.304600774145	3
14	14006	0.305144774145	2
14	14015	0.305319832225	3
14	14036	0.305863832225	2
14	14122	0.310220634116	3
14	14183	0.310764634116	2
14	14220	0.311224634116	3
14	14254	0.311768634116	2
14	14267	0.311848634116	3
14	14324	0.312392634116	2
14	14515	0.315747801549	1
14	14526	0.315808365009	3
14	14542	0.316064365009	1
14	14554	0.316204365009	3
14	14570	0.316460365009	1
14	14582	0.316640365009	3
14	14598	0.316896365009	1
14	14608	0.31703649231	3
14	14623	0.31758049231	1
14	14638	0.31760049231	3
14	14654	0.31814449231	1
14	14665	0.318145032137	3
14	14685	0.318401032137	1
14	14697	0.318561406429	3
14	15064	0.323905406429	1
14	15098	0.324265969889	3
14	15119	0.324521969889	2
14	15120	0.324521969889	3
14	15165	0.324777969889	1
14	15175	0.3252385031	3
14	15187	0.3257825031	1
14	15409	0.332053569265	3
15	0	0	1
15	137	0.01058	0
15	194	0.011124	1
15	218	0.011304	0
15	262	0.011848	1
15	288	0.012133482595	3
15	320	0.012677482595	2
15	334	0.013137482595	3
15	366	0.013681482595	2
15	379	0.013821509091	1
15	391	0.014041509091	3
15	412	0.014585509091	2
15	424	0.014825482595	1
15	435	0.015285482595	0
15	446	0.015829482595	1
15	542	0.02052	0
15	601	0.021064	1
15	652	0.021509509091	3
15	675	0.022053509091	1
15	699	0.022133482595	3
15	723	0.022677482595	1
15	738	0.022737482595	3
15	760	0.023281482595	2
15	773	0.023423379389	1
15	785	0.023521482595	3
15	808	0.024065482595	2
15	821	0.024467379389	1
15	833	0.024867379389	0
15	844	0.025411379389	1
15	858	0.025631379389	0
15	870	0.026175379389	1
15	957	0.030300573942	3
15	979	0.030844573942	1
15	990	0.030944573942	0
15	1026	0.031488573942	1
15	1040	0.031548573942	0
15	1085	0.032092573942	1
15	1121	0.032192573942	0
15	1158	0.032736573942	1
15	1182	0.033077721826	3
15	1205	0.033621721826	2
15	1218	0.033701721826	3
15	1252	0.034245721826	2
15	1264	0.034421482595	1
15	1278	0.034741482595	3
15	1288	0.035285482595	1
15	1395	0.04062	0
15	1443	0.041164	1
15	1467	0.041229482595	3
15	1493	0.041773482595	1
15	1507	0.041833482595	3
15	1530	0.042377482595	2
15	1543	0.042473509091	1
15	1553	0.042653509091	0
15	1589	0.043197509091	1
15	1603	0.043217509091	0
15	1636	0.043761509091	1
15	1653	0.043842656975	3
15	1675	0.044386656975	2
15	1688	0.044506880943	1
15	1701	0.044826656975	3
15	1712	0.045370656975	1
15	1785	0.050160685926	3
15	1807	0.050704685926	2
15	1831	0.050804573942	1
15	1879	0.051404573942	0
15	1914	0.051948573942	1
15	1938	0.052108573942	0
15	1984	0.052652573942	1
15	2021	0.05299844424	3
15	2045	0.05354244424	2
15	2059	0.05394244424	3
15	2093	0.05448644424	2
15	2106	0.054606279264	1
15	2117	0.054846279264	0
15	2129	0.055390279264	1
15	2216	0.060420573942	3
15	2239	0.060964573942	1
15	2274	0.061404573942	0
15	2309	0.061948573942	1
15	2319	0.061949945794	3
15	2346	0.062493945794	2
15	2360	0.062573945794	3
15	2384	0.063117945794	1
15	2409	0.063237945794	3
15	2433	0.063781945794	1
15	2447	0.063839592124	3
15	2469	0.064383592124	1
15	2493	0.064683592124	0
15	2528	0.065227592124	1
15	2540	0.065587592124	0
15	2551	0.066131592124	1
15	2625	0.07006	0
15	2658	0.070604	1
15	2684	0.070665482595	3
15	2718	0.071209482595	1
15	2730	0.071309482595	0
15	2766	0.071853482595	1
15	2767	0.071853482595	0
15	2812	0.072397482595	1
15	2852	0.072893509091	3
15	2885	0.073437509091	2
15	2898	0.073723075933	1
15	2912	0.073877509091	3
15	2934	0.074421509091	2
15	2946	0.074487075933	1
15	2959	0.074521509091	3
15	2970	0.075065509091	1
15	3044	0.08006	0
15	3077	0.080604	2
15	3082	0.080604685926	1
15	3137	0.081064685926	0
15	3184	0.081608685926	1
15	3195	0.081668685926	0
15	3230	0.082212685926	1
15	3281	0.082873509091	3
15	3303	0.083417509091	2
15	3317	0.083557509091	3
15	3351	0.084101509091	2
15	3363	0.084326279264	1
15	3378	0.084681509091	3
15	3389	0.085225509091	1
15	3471	0.0906	0
15	3529	0.091144	2
15	3533	0.091144573942	1
15	3589	0.091629482595	3
15	3613	0.092173482595	1
15	3649	0.092573482595	0
15	3685	0.093117482595	1
15	3698	0.093178854447	3
15	3721	0.093722854447	2
15	3735	0.093862854447	3
15	3758	0.094406854447	1
15	3770	0.094466854447	0
15	3781	0.095010854447	1
15	3798	0.095372002331	3
15	3808	0.095916002331	1
15	3962	0.100180573942	3
15	3983	0.100724573942	2
15	3996	0.100884685926	1
15	4031	0.101244685926	0
15	4077	0.101788685926	1
15	4110	0.102348685926	0
15	4145	0.102892685926	1
15	4146	0.102892685926	0
15	4189	0.103436685926	1
15	4214	0.10387783381	3
15	4237	0.10442183381	2
15	4251	0.10474183381	3
15	4283	0.10528583381	2
15	4313	0.105486279264	1
15	4397	0.110340685926	3
15	4420	0.110884685926	2
15	4421	0.110884685926	3
15	4492	0.111428685926	2
15	4504	0.111549509091	1
15	4516	0.111708685926	3
15	4537	0.112252685926	1
15	4548	0.112332685926	0
15	4592	0.112876685926	1
15	4635	0.113396685926	0
15	4657	0.113940685926	1
15	4681	0.11420183381	3
15	4702	0.11474583381	1
15	4704	0.11474583381	0
15	4724	0.11528983381	1
15	4738	0.115450981694	3
15	4750	0.115994981694	1
15	4785	0.1166935781	3
15	4804	0.1172375781	1
15	4816	0.1173175781	3
15	4835	0.1178615781	1
15	4876	0.118666734884	3
15	4894	0.119210734884	1
15	4993	0.120060573942	3
15	5025	0.120604573942	1
15	5053	0.120784573942	0
15	5124	0.121328573942	1
15	5160	0.121488573942	0
15	5221	0.122032573942	1
15	5274	0.122469196844	3
15	5314	0.123013196844	2
15	5320	0.123073115751	1
15	5331	0.123093482595	3
15	5363	0.123637482595	2
15	5393	0.123957482595	3
15	5452	0.124501482595	1
15	5464	0.124581482595	0
15	5497	0.125125482595	2
15	5517	0.125126615561	1
15	5532	0.125367195849	3
15	5549	0.125911195849	1
15	5558	0.126351987413	3
15	5593	0.126895987413	1
15	5737	0.13034	0
15	5772	0.130884	1
15	5796	0.130964	0
15	5832	0.131508	1
15	5868	0.131828	0
15	5913	0.132372	1
15	5928	0.132393371852	3
15	5951	0.132937371852	1
15	5965	0.133013509091	3
15	5988	0.133557509091	2
15	6000	0.133561371852	1
15	6013	0.133637509091	3
15	6037	0.134181509091	2
15	6049	0.134425371852	1
15	6062	0.134501509091	3
15	6074	0.135045509091	1
15	6151	0.14006	0
15	6185	0.140604	1
15	6199	0.140804	0
15	6255	0.141348	1
15	6304	0.141549482595	3
15	6331	0.142093482595	1
15	6333	0.142093482595	0
15	6378	0.142637482595	2
15	6379	0.142637509091	1
15	6414	0.143118630479	3
15	6437	0.143662630479	2
15	6450	0.143742630479	3
15	6484	0.144286630479	2
15	6497	0.144447075933	1
15	6582	0.150100573942	3
15	6604	0.150644573942	1
15	6617	0.150804573942	3
15	6640	0.151348573942	1
15	6652	0.151408573942	0
15	6686	0.151952573942	1
15	6701	0.152013945794	3
15	6735	0.152557945794	1
15	6751	0.152697945794	3
15	6786	0.153241945794	1
15	6800	0.153341945794	3
15	6825	0.153885945794	1
15	6837	0.154065945794	0
15	6861	0.154609945794	1
15	6875	0.154749945794	0
15	6896	0.155293945794	1
15	6912	0.155395093678	3
15	6922	0.155939093678	1
15	7006	0.160280573942	3
15	7040	0.160824573942	2
15	7053	0.161064573942	3
15	7087	0.161608573942	1
15	7110	0.161788573942	0
15	7147	0.162332573942	1
15	7160	0.162393945794	3
15	7182	0.162937945794	2
15	7196	0.162977945794	3
15	7230	0.163521945794	1
15	7255	0.164021945794	0
15	7301	0.164565945794	1
15	7314	0.164645945794	0
15	7338	0.165189945794	1
15	7435	0.17044	0
15	7472	0.170984	1
15	7484	0.171104	0
15	7519	0.171648	1
15	7555	0.171929482595	3
15	7581	0.172473482595	2
15	7582	0.172473482595	3
15	7626	0.173017482595	2
15	7651	0.173237509091	1
15	7661	0.173357509091	0
15	7695	0.173901509091	1
15	7722	0.174322880943	3
15	7745	0.174866880943	2
15	7759	0.175187379389	1
15	7832	0.180080573942	3
15	7854	0.180624573942	2
15	7869	0.180984573942	3
15	7902	0.181528573942	2
15	7927	0.181808685926	1
15	7928	0.181808685926	0
15	7973	0.182352685926	1
15	7985	0.182392685926	0
15	8030	0.182936685926	1
15	8078	0.183516685926	0
15	8116	0.184060685926	1
15	8140	0.18454183381	3
15	8162	0.18508583381	2
15	8175	0.185546279264	1
15	8257	0.19012	0
15	8293	0.190664	1
15	8317	0.190765147884	3
15	8339	0.191309147884	1
15	8367	0.191409147884	3
15	8390	0.191953147884	1
15	8411	0.192213147884	3
15	8434	0.192757147884	2
15	8446	0.192917482595	1
15	8461	0.192977482595	3
15	8483	0.193521482595	1
15	8522	0.193901482595	3
15	8546	0.194445482595	1
15	8559	0.195045482595	0
15	8572	0.195589482595	1
15	8586	0.196089482595	0
15	8597	0.196633482595	1
15	8735	0.200060573942	3
15	8764	0.200604573942	2
15	8789	0.201044685926	1
15	8799	0.201124685926	0
15	8845	0.201668685926	1
15	8890	0.202288685926	0
15	8935	0.202832685926	1
15	8946	0.202912685926	0
15	8979	0.203456685926	1
15	8994	0.203798057778	3
15	9015	0.204342057778	2
15	9029	0.20452183381	1
15	9041	0.204802057778	3
15	9062	0.205346057778	2
15	9114	0.20554583381	1
15	9196	0.21004	0
15	9229	0.210584	1
15	9254	0.210864	0
15	9307	0.211408	1
15	9308	0.211408	0
15	9353	0.211952	1
15	9424	0.212793482595	3
15	9445	0.213337482595	2
15	9460	0.213397482595	3
15	9491	0.213941482595	2
15	9505	0.214181482595	3
15	9537	0.214725482595	2
15	9550	0.214905509091	1
15	9673	0.218826084272	3
15	9692	0.219370084272	1
15	9732	0.219967517504	3
15	9833	0.220511517504	2
15	9844	0.220592000762	3
15	9908	0.221136000762	1
[...]
43	14446	0.314820685926	0
43	14470	0.315180685926	1
43	14471	0.315180685926	2
43	14493	0.315724685926	1
43	14493	0.315724685926	0
43	14763	0.32002	1
43	14764	0.32002	2
43	14786	0.320564	1
43	14786	0.320564	0
43	14798	0.320704	1
43	14799	0.320704	2
43	14834	0.321248	1
43	14834	0.321248	0
43	14882	0.321833371852	1
43	14884	0.321833371852	2
43	14916	0.322377371852	1
43	14916	0.322377371852	0
43	15280	0.33032	1
43	15281	0.33032	2
43	15314	0.330864	1
43	15314	0.330864	0
43	15315	0.330864	1
43	15316	0.330864	2
43	15360	0.331408	1
43	15360	0.331408	0
43	15361	0.331408	1
43	15362	0.331408	2
43	15395	0.331952	1
43	15395	0.331952	0
44	308	0.012672935149	1
44	309	0.012672935149	2
44	343	0.013216935149	1
44	343	0.013216935149	0
44	354	0.013276935149	1
44	355	0.013276935149	2
44	378	0.013820935149	1
44	378	0.013820935149	0
44	389	0.014040935149	1
44	390	0.014040935149	2
44	411	0.014584935149	1
44	411	0.014584935149	0
44	650	0.021508935149	1
44	651	0.021508935149	2
44	674	0.022052935149	1
44	674	0.022052935149	0
44	747	0.022878805447	1
44	748	0.022878805447	2
44	772	0.023422805447	1
44	772	0.023422805447	0
44	796	0.023922805447	1
44	797	0.023922805447	2
44	820	0.024466805447	1
44	820	0.024466805447	0
44	955	0.0303	1
44	956	0.0303	2
44	978	0.030844	1
44	978	0.030844	0
44	1180	0.033077147884	1
44	1181	0.033077147884	2
44	1204	0.033621147884	1
44	1204	0.033621147884	0
44	1216	0.033701147884	1
44	1217	0.033701147884	2
44	1251	0.034245147884	1
44	1251	0.034245147884	0
44	1516	0.041928935149	1
44	1517	0.041928935149	2
44	1542	0.042472935149	1
44	1542	0.042472935149	0
44	1651	0.043842083033	1
44	1652	0.043842083033	2
44	1674	0.044386083033	1
44	1674	0.044386083033	0
44	1699	0.044826083033	1
44	1700	0.044826083033	2
44	1711	0.045370083033	1
44	1711	0.045370083033	0
44	1794	0.05026	1
44	1795	0.05026	2
44	1830	0.050804	1
44	1830	0.050804	0
44	2019	0.052997870298	1
44	2020	0.052997870298	2
44	2044	0.053541870298	1
44	2044	0.053541870298	0
44	2057	0.053941870298	1
44	2058	0.053941870298	2
44	2092	0.054485870298	1
44	2092	0.054485870298	0
44	2214	0.06042	1
44	2215	0.06042	2
44	2238	0.060964	1
44	2238	0.060964	0
44	2333	0.062109147884	1
44	2334	0.062109147884	2
44	2369	0.062653147884	1
44	2369	0.062653147884	0
44	2445	0.063839018182	1
44	2446	0.063839018182	2
44	2468	0.064383018182	1
44	2468	0.064383018182	0
44	2850	0.072892935149	1
44	2851	0.072892935149	2
44	2884	0.073436935149	1
44	2884	0.073436935149	0
44	2910	0.073876935149	1
44	2911	0.073876935149	2
44	2933	0.074420935149	1
44	2933	0.074420935149	0
44	2957	0.074520935149	1
44	2958	0.074520935149	2
44	2969	0.075064935149	1
44	2969	0.075064935149	0
44	3279	0.082872935149	1
44	3280	0.082872935149	2
44	3302	0.083416935149	1
44	3302	0.083416935149	0
44	3315	0.083556935149	1
44	3316	0.083556935149	2
44	3350	0.084100935149	1
44	3350	0.084100935149	0
44	3376	0.084680935149	1
44	3377	0.084680935149	2
44	3388	0.085224935149	1
44	3388	0.085224935149	0
44	3472	0.0906	1
44	3475	0.0906	2
44	3530	0.091144	1
44	3530	0.091144	0
44	3708	0.093618056537	1
44	3709	0.093618056537	2
44	3745	0.094162056537	1
44	3745	0.094162056537	0
44	3796	0.095371428389	1
44	3797	0.095371428389	2
44	3807	0.095915428389	1
44	3807	0.095915428389	0
44	3960	0.10018	1
44	3961	0.10018	2
44	3982	0.100724	1
44	3982	0.100724	0
44	4212	0.103877259868	1
44	4213	0.103877259868	2
44	4236	0.104421259868	1
44	4236	0.104421259868	0
44	4248	0.104741259868	1
44	4249	0.104741259868	2
44	4282	0.105285259868	1
44	4282	0.105285259868	0
44	4462	0.111004935149	1
44	4463	0.111004935149	2
44	4503	0.111548935149	1
44	4503	0.111548935149	0
44	4679	0.114201259868	1
44	4680	0.114201259868	2
44	4701	0.114745259868	1
44	4701	0.114745259868	0
44	4736	0.115450407752	1
44	4737	0.115450407752	2
44	4749	0.115994407752	1
44	4749	0.115994407752	0
44	4991	0.12006	1
44	4992	0.12006	2
44	5024	0.120604	1
44	5024	0.120604	0
44	5278	0.122528541809	1
44	5279	0.122528541809	2
44	5319	0.123072541809	1
44	5319	0.123072541809	0
44	5351	0.123572541809	1
44	5352	0.123572541809	2
44	5402	0.124116541809	1
44	5402	0.124116541809	0
44	5963	0.133012935149	1
44	5964	0.133012935149	2
44	5987	0.133556935149	1
44	5987	0.133556935149	0
44	6011	0.133636935149	1
44	6012	0.133636935149	2
44	6036	0.134180935149	1
44	6036	0.134180935149	0
44	6060	0.134500935149	1
44	6061	0.134500935149	2
44	6073	0.135044935149	1
44	6073	0.135044935149	0
44	6329	0.142092935149	1
44	6330	0.142092935149	2
44	6377	0.142636935149	1
44	6377	0.142636935149	0
44	6412	0.143118056537	1
44	6413	0.143118056537	2
44	6436	0.143662056537	1
44	6436	0.143662056537	0
44	6448	0.143742056537	1
44	6449	0.143742056537	2
44	6483	0.144286056537	1
44	6483	0.144286056537	0
44	6580	0.1501	1
44	6581	0.1501	2
44	6603	0.150644	1
44	6603	0.150644	0
44	6615	0.150804	1
44	6616	0.150804	2
44	6639	0.151348	1
44	6639	0.151348	0
44	6910	0.155394519736	1
44	6911	0.155394519736	2
44	6921	0.155938519736	1
44	6921	0.155938519736	0
44	7004	0.16028	1
44	7005	0.16028	2
44	7039	0.160824	1
44	7039	0.160824	0
44	7051	0.161064	1
44	7052	0.161064	2
44	7086	0.161608	1
44	7086	0.161608	0
44	7170	0.162673147884	1
44	7171	0.162673147884	2
44	7206	0.163217147884	1
44	7206	0.163217147884	0
44	7564	0.171948935149	1
44	7565	0.171948935149	2
44	7602	0.172492935149	1
44	7602	0.172492935149	0
44	7613	0.172692935149	1
44	7614	0.172692935149	2
44	7650	0.173236935149	1
44	7650	0.173236935149	0
44	7733	0.174642805447	1
44	7734	0.174642805447	2
44	7758	0.175186805447	1
44	7758	0.175186805447	0
44	7830	0.18008	1
44	7831	0.18008	2
44	7853	0.180624	1
44	7853	0.180624	0
44	7867	0.180984	1
44	7868	0.180984	2
44	7901	0.181528	1
44	7901	0.181528	0
44	8138	0.184541259868	1
44	8139	0.184541259868	2
44	8161	0.185085259868	1
44	8161	0.185085259868	0
44	8315	0.190764573942	1
44	8316	0.190764573942	2
44	8338	0.191308573942	1
44	8338	0.191308573942	0
44	8363	0.191408573942	1
44	8364	0.191408573942	2
44	8386	0.191952573942	1
44	8386	0.191952573942	0
44	8409	0.192212573942	1
44	8410	0.192212573942	2
44	8433	0.192756573942	1
44	8433	0.192756573942	0
44	8730	0.20006	1
44	8732	0.20006	2
44	8763	0.200604	1
44	8763	0.200604	0
44	9003	0.203977259868	1
44	9004	0.203977259868	2
44	9028	0.204521259868	1
44	9028	0.204521259868	0
44	9050	0.205001259868	1
44	9051	0.205001259868	2
44	9113	0.205545259868	1
44	9113	0.205545259868	0
44	9433	0.212852935149	1
44	9434	0.212852935149	2
44	9459	0.213396935149	1
44	9459	0.213396935149	0
44	9479	0.213716935149	1
44	9480	0.213716935149	2
44	9514	0.214260935149	1
44	9514	0.214260935149	0
44	9525	0.214360935149	1
44	9526	0.214360935149	2
44	9549	0.214904935149	1
44	9549	0.214904935149	0
44	9807	0.22042	1
44	9808	0.22042	2
44	9872	0.220964	1
44	9872	0.220964	0
44	9959	0.221689870298	1
44	9960	0.221689870298	2
44	10011	0.222233870298	1
44	10011	0.222233870298	0
44	10212	0.224313296099	1
44	10213	0.224313296099	2
44	10242	0.224857296099	1
44	10242	0.224857296099	0
44	10477	0.23004	1
44	10478	0.23004	2
44	10500	0.230584	1
44	10500	0.230584	0
44	10512	0.230604	1
44	10513	0.230604	2
44	10537	0.231148	1
44	10537	0.231148	0
44	10720	0.233641870298	1
44	10721	0.233641870298	2
44	10756	0.234185870298	1
44	10756	0.234185870298	0
44	11128	0.243457259868	1
44	11129	0.243457259868	2
44	11162	0.244001259868	1
44	11162	0.244001259868	0
44	11187	0.244301259868	1
44	11188	0.244301259868	2
44	11199	0.244845259868	1
44	11199	0.244845259868	0
44	11222	0.244945259868	1
44	11223	0.244945259868	2
44	11246	0.245489259868	1
44	11246	0.245489259868	0
44	11542	0.252852935149	1
44	11543	0.252852935149	2
44	11568	0.253396935149	1
44	11568	0.253396935149	0
44	11591	0.253796935149	1
44	11592	0.253796935149	2
44	11617	0.254340935149	1
44	11617	0.254340935149	0
44	11653	0.254920935149	1
44	11654	0.254920935149	2
44	11665	0.255464935149	1
44	11665	0.255464935149	0
44	11962	0.262912573942	1
44	11963	0.262912573942	2
44	11999	0.263456573942	1
44	11999	0.263456573942	0
44	12024	0.264056573942	1
44	12025	0.264056573942	2
44	12047	0.264600573942	1
44	12047	0.264600573942	0
44	12072	0.265140573942	1
44	12073	0.265140573942	2
44	12084	0.265684573942	1
44	12084	0.265684573942	0
44	12382	0.272978056537	1
44	12383	0.272978056537	2
44	12416	0.273522056537	1
44	12416	0.273522056537	0
44	12417	0.273522056537	1
44	12418	0.273522056537	2
44	12452	0.274066056537	1
44	12452	0.274066056537	0
44	12475	0.274166056537	1
44	12476	0.274166056537	2
44	12500	0.274710056537	1
44	12500	0.274710056537	0
44	12843	0.284361259868	1
44	12844	0.284361259868	2
44	12867	0.284905259868	1
44	12867	0.284905259868	0
44	12891	0.285005259868	1
44	12892	0.285005259868	2
44	12902	0.285549259868	1
44	12902	0.285549259868	0
44	12914	0.286149259868	1
44	12915	0.286149259868	2
44	12925	0.286693259868	1
44	12925	0.286693259868	0
44	12997	0.29012	1
44	12998	0.29012	2
44	13020	0.290664	1
44	13020	0.290664	0
44	13172	0.292473147884	1
44	13173	0.292473147884	2
44	13207	0.293017147884	1
44	13207	0.293017147884	0
44	13282	0.294242056537	1
44	13283	0.294242056537	2
44	13304	0.294786056537	1
44	13304	0.294786056537	0
44	13496	0.30034	1
44	13497	0.30034	2
44	13561	0.300884	1
44	13561	0.300884	0
44	13571	0.300964	1
44	13572	0.300964	2
44	13627	0.301508	1
44	13627	0.301508	0
44	13637	0.301708	1
44	13638	0.301708	2
44	13693	0.302252	1
44	13693	0.302252	0
44	14361	0.313432573942	1
44	14362	0.313432573942	2
44	14385	0.313976573942	1
44	14385	0.313976573942	0
44	14409	0.314096573942	1
44	14410	0.314096573942	2
44	14433	0.314640573942	1
44	14433	0.314640573942	0
44	14458	0.314920573942	1
44	14459	0.314920573942	2
44	14481	0.315464573942	1
44	14481	0.315464573942	0
44	14774	0.32024	1
44	14775	0.32024	2
44	14810	0.320784	1
44	14810	0.320784	0
44	15009	0.323277870298	1
44	15010	0.323277870298	2
44	15031	0.323821870298	1
44	15031	0.323821870298	0
44	15082	0.324081870298	1
44	15083	0.324081870298	2
44	15143	0.324625870298	1
44	15143	0.324625870298	0
44	15269	0.33012	1
44	15270	0.33012	2
44	15291	0.330664	1
44	15291	0.330664	0
44	15303	0.330724	1
44	15304	0.330724	2
44	15337	0.331268	1
44	15337	0.331268	0
44	15349	0.331288	1
44	15350	0.331288	2
44	15383	0.331832	1
44	15383	0.331832	0
45	3829	0.1	1300
45	8621	0.2	1300
45	13366	0.3	1300
46	3830	0.1	1300
46	8622	0.2	1300
46	13367	0.3	1300
47	3831	0.1	1300
47	8623	0.2	1300
47	13368	0.3	1300
48	3832	0.1	100
48	8624	0.2	100
48	13369	0.3	100
49	3833	0.1	100
49	8625	0.2	100
49	13370	0.3	100
50	3834	0.1	100
50	8626	0.2	100
50	13371	0.3	100
51	3835	0.1	100
51	8627	0.2	100
51	13372	0.3	100
52	3836	0.1	100
52	8628	0.2	100
52	13373	0.3	100
53	3837	0.1	100
53	8629	0.2	100
53	13374	0.3	100
54	3838	0.1	100
54	8630	0.2	100
54	13375	0.3	100
55	3839	0.1	100
55	8631	0.2	100
55	13376	0.3	100
56	3840	0.1	100
56	8632	0.2	100
56	13377	0.3	100
57	3857	0.1	1308
57	3859	0.1	1308
57	3861	0.1	1308
57	8648	0.2	1308
57	8649	0.2	1308
57	8650	0.2	1308
57	13393	0.3	1308
57	13394	0.3	1308
57	13395	0.3	1308
58	3863	0.1	108
58	3865	0.1	108
58	3867	0.1	108
58	8651	0.2	108
58	8652	0.2	108
58	8653	0.2	108
58	13396	0.3	108
58	13397	0.3	108
58	13398	0.3	108
59	3869	0.1	108
59	3871	0.1	108
59	3873	0.1	108
59	8654	0.2	108
59	8655	0.2	108
59	8656	0.2	108
59	13399	0.3	108
59	13400	0.3	108
59	13401	0.3	108
60	3875	0.1	108
60	3877	0.1	108
60	3879	0.1	108
60	8657	0.2	108
60	8658	0.2	108
60	8659	0.2	108
60	13402	0.3	108
60	13403	0.3	108
60	13404	0.3	108
61	3949	0.10014	1
61	3950	0.10014	2
61	4294	0.105484	1
61	4294	0.105484	0
61	4323	0.105564	1
61	4324	0.105564	2
61	4440	0.110908	1
61	4440	0.110908	0
61	4480	0.111128	1
61	4481	0.111128	2
61	4761	0.116472	1
61	4761	0.116472	0
61	8729	0.20006	1
61	8731	0.20006	2
61	9073	0.205404	1
61	9073	0.205404	0
61	9091	0.205424	1
61	9092	0.205424	2
61	9241	0.210768	1
61	9241	0.210768	0
61	9285	0.211128	1
61	9286	0.211128	2
61	9562	0.216472	1
61	9562	0.216472	0
61	13988	0.304999179517	1
61	13989	0.304999179517	2
61	14142	0.310343179517	1
61	14142	0.310343179517	0
61	14169	0.310403179517	1
61	14170	0.310403179517	2
61	14505	0.315747179517	1
61	14505	0.315747179517	0
61	14692	0.318560784397	1
61	14693	0.318560784397	2
61	15054	0.323904784397	1
61	15054	0.323904784397	0
62	4300	0.105484468876	1308
62	4446	0.110908468876	1308
62	4767	0.116472468876	1308
62	4801	0.117237338648	108
62	4832	0.117861338648	108
62	4855	0.118605465949	108
62	4889	0.119210545385	108
62	4916	0.119794957693	108
62	5040	0.120718957693	108
62	5312	0.123012957392	108
62	5510	0.125126426062	108
62	5545	0.12591100635	108
62	9079	0.205404468876	1308
62	9567	0.216472468876	1308
62	9592	0.217276951415	108
62	9622	0.218080951415	108
62	9652	0.218764951415	108
62	9689	0.21936984482	108
62	9830	0.220511278052	108
62	9903	0.221135811263	108
62	9978	0.221699811263	108
62	10044	0.22230444345	108
62	10231	0.22482700635	108
62	13543	0.300724716616	108
62	13608	0.301328716616	108
62	13668	0.301913249827	108
62	13726	0.302557882014	108
62	13887	0.303874549142	108
62	13954	0.304539628578	108
62	14147	0.310343648393	1308
62	14510	0.315747648393	1308
62	14620	0.317580315521	108
62	14651	0.318144315521	108
62	15060	0.323905253273	1308
62	15192	0.325782587529	108
63	4300	0.105484468876	1
63	4446	0.110908468876	2
63	4801	0.117237338648	3
63	4832	0.117861338648	4
63	4855	0.118605465949	5
63	4889	0.119210545385	6
63	4916	0.119794957693	7
63	5510	0.125126426062	8
63	9079	0.205404468876	9
63	9592	0.217276951415	10
63	9622	0.218080951415	11
63	9689	0.21936984482	12
63	9830	0.220511278052	13
63	9903	0.221135811263	14
63	9978	0.221699811263	15
63	13543	0.300724716616	16
63	13608	0.301328716616	17
63	13668	0.301913249827	18
63	13887	0.303874549142	19
63	13954	0.304539628578	20
63	14147	0.310343648393	21
63	14510	0.315747648393	22
63	14620	0.317580315521	23
64	4767	0.116472468876	1
64	5040	0.120718957693	2
64	5312	0.123012957392	3
64	5545	0.12591100635	4
64	9567	0.216472468876	5
64	9652	0.218764951415	6
64	10044	0.22230444345	7
64	10231	0.22482700635	8
64	13726	0.302557882014	9
64	14651	0.318144315521	10
64	15060	0.323905253273	11
64	15192	0.325782587529	12
65	4768	0.116472468876	1300
65	5041	0.120718957693	100
65	5313	0.123012957392	100
65	5546	0.12591100635	100
65	9568	0.216472468876	1300
65	9653	0.218764951415	100
65	10045	0.22230444345	100
65	10232	0.22482700635	100
65	13727	0.302557882014	100
65	14653	0.318144315521	100
65	15061	0.323905253273	1300
65	15193	0.325782587529	100
66	4768	0.1	0
66	9568	0.2	128000
66	13727	0.3	128000
67	4768	0.116472468876	0.016472468876
67	5041	0.120718957693	0.020718957693
67	5313	0.123012957392	0.023012957392
67	5546	0.12591100635	0.02591100635
67	9568	0.216472468876	0.016472468876
67	9653	0.218764951415	0.018764951415
67	10045	0.22230444345	0.02230444345
67	10232	0.22482700635	0.02482700635
67	13727	0.302557882014	0.002557882014
67	14653	0.318144315521	0.018144315521
67	15061	0.323905253273	0.023905253273
67	15193	0.325782587529	0.025782587529
68	4768	0.116472468876	0
68	5041	0.120718957693	0
68	5313	0.123012957392	0
68	5546	0.12591100635	0
68	9568	0.216472468876	1
68	9653	0.218764951415	1
68	10045	0.22230444345	1
68	10232	0.22482700635	1
68	13727	0.302557882014	2
68	14653	0.318144315521	2
68	15061	0.323905253273	2
68	15193	0.325782587529	2
69	4778	0.116692622032	1
69	4779	0.116692622032	2
69	4789	0.117236622032	1
69	4789	0.117236622032	0
69	4809	0.117316622032	1
69	4810	0.117316622032	2
69	4820	0.117860622032	1
69	4820	0.117860622032	0
69	5267	0.122468240776	1
69	5268	0.122468240776	2
69	5300	0.123012240776	1
69	5300	0.123012240776	0
69	9666	0.218825128204	1
69	9667	0.218825128204	2
69	9677	0.219369128204	1
69	9677	0.219369128204	0
69	9725	0.219966561436	1
69	9726	0.219966561436	2
69	9818	0.220510561436	1
69	9818	0.220510561436	0
69	9989	0.221759726834	1
69	9990	0.221759726834	2
69	10033	0.222303726834	1
69	10033	0.222303726834	0
69	13485	0.30018	1
69	13486	0.30018	2
69	13532	0.300724	1
69	13532	0.300724	0
69	13550	0.300784	1
69	13551	0.300784	2
69	13597	0.301328	1
69	13597	0.301328	0
69	13680	0.302013165398	1
69	13681	0.302013165398	2
69	13715	0.302557165398	1
69	13715	0.302557165398	0
70	4840	0.118061132385	1
70	4841	0.118061132385	2
70	4851	0.118605132385	1
70	4851	0.118605132385	0
70	4901	0.119250624129	1
70	4902	0.119250624129	2
70	4912	0.119794624129	1
70	4912	0.119794624129	0
70	5002	0.120174624129	1
70	5003	0.120174624129	2
70	5036	0.120718624129	1
70	5036	0.120718624129	0
70	9577	0.216732617851	1
70	9578	0.216732617851	2
70	9588	0.217276617851	1
70	9588	0.217276617851	0
70	9607	0.217536617851	1
70	9608	0.217536617851	2
70	9618	0.218080617851	1
70	9618	0.218080617851	0
70	9637	0.218220617851	1
70	9638	0.218220617851	2
70	9648	0.218764617851	1
70	9648	0.218764617851	0
70	13857	0.303330215578	1
70	13858	0.303330215578	2
70	13883	0.303874215578	1
70	13883	0.303874215578	0
70	14605	0.317035981957	1
70	14606	0.317035981957	2
70	14616	0.317579981957	1
70	14616	0.317579981957	0
70	14635	0.317599981957	1
70	14636	0.317599981957	2
70	14646	0.318143981957	1
70	14646	0.318143981957	0
71	4870	0.118665878257	1
71	4871	0.118665878257	2
71	4881	0.119209878257	1
71	4881	0.119209878257	0
71	5466	0.124581758934	1
71	5467	0.124581758934	2
71	5498	0.125125758934	1
71	5498	0.125125758934	0
71	5526	0.125366339222	1
71	5527	0.125366339222	2
71	5537	0.125910339222	1
71	5537	0.125910339222	0
71	9838	0.220591144135	1
71	9839	0.220591144135	2
71	9895	0.221135144135	1
71	9895	0.221135144135	0
71	9914	0.221155144135	1
71	9915	0.221155144135	2
71	9970	0.221699144135	1
71	9970	0.221699144135	0
71	10201	0.224282339222	1
71	10202	0.224282339222	2
71	10223	0.224826339222	1
71	10223	0.224826339222	0
71	13615	0.301368582699	1
71	13616	0.301368582699	2
71	13660	0.301912582699	1
71	13660	0.301912582699	0
71	13912	0.30399496145	1
71	13913	0.30399496145	2
71	13946	0.30453896145	1
71	13946	0.30453896145	0
71	15172	0.325237920401	1
71	15173	0.325237920401	2
71	15184	0.325781920401	1
71	15184	0.325781920401	0
72	5076	0.120958957693	1
72	5077	0.120958957693	2
72	5110	0.121214957693	1
72	5110	0.121214957693	0
72	5137	0.121354957693	1
72	5138	0.121354957693	2
72	5172	0.121610957693	1
72	5172	0.121610957693	0
72	5210	0.121930957693	1
72	5211	0.121930957693	2
72	5232	0.122186957693	1
72	5232	0.122186957693	0
72	5340	0.123412957392	1
72	5341	0.123412957392	2
72	5375	0.123668957392	1
72	5375	0.123668957392	0
72	5413	0.124148957392	1
72	5414	0.124148957392	2
72	5435	0.124404957392	1
72	5435	0.124404957392	0
72	5568	0.12651100635	1
72	5569	0.12651100635	2
72	5579	0.12676700635	1
72	5579	0.12676700635	0
72	5606	0.12726700635	1
72	5607	0.12726700635	2
72	5617	0.12752300635	1
72	5617	0.12752300635	0
72	5635	0.12792300635	1
72	5636	0.12792300635	2
72	5646	0.12817900635	1
72	5646	0.12817900635	0
72	9094	0.205424468876	1
72	9096	0.205424468876	2
72	9125	0.205680468876	1
72	9125	0.205680468876	0
72	9697	0.21938984482	1
72	9698	0.21938984482	2
72	9708	0.21964584482	1
72	9708	0.21964584482	0
72	10062	0.22270444345	1
72	10063	0.22270444345	2
72	10084	0.22296044345	1
72	10084	0.22296044345	0
72	10096	0.22312044345	1
72	10097	0.22312044345	2
72	10120	0.22337644345	1
72	10120	0.22337644345	0
72	10143	0.22351644345	1
72	10144	0.22351644345	2
72	10165	0.22377244345	1
72	10165	0.22377244345	0
72	10253	0.22506700635	1
72	10254	0.22506700635	2
72	10275	0.22532300635	1
72	10275	0.22532300635	0
72	10315	0.22576300635	1
72	10316	0.22576300635	2
72	10326	0.22601900635	1
72	10326	0.22601900635	0
72	13766	0.302777882014	1
72	13767	0.302777882014	2
72	13778	0.303033882014	1
72	13778	0.303033882014	0
72	13789	0.303053882014	1
72	13790	0.303053882014	2
72	13846	0.303309882014	1
72	13846	0.303309882014	0
72	14521	0.315807648393	1
72	14522	0.315807648393	2
72	14532	0.316063648393	1
72	14532	0.316063648393	0
72	14549	0.316203648393	1
72	14550	0.316203648393	2
72	14560	0.316459648393	1
72	14560	0.316459648393	0
72	14577	0.316639648393	1
72	14578	0.316639648393	2
72	14588	0.316895648393	1
72	14588	0.316895648393	0
72	14650	0.318144315521	1
72	14652	0.318144315521	2
72	14675	0.318400315521	1
72	14675	0.318400315521	0
72	15093	0.324265253273	1
72	15094	0.324265253273	2
72	15104	0.324521253273	1
72	15104	0.324521253273	0
72	15105	0.324521253273	1
72	15106	0.324521253273	2
72	15155	0.324777253273	1
72	15155	0.324777253273	0

